.MODEL NPNBJT NPN
+       IS=1.0E-15
+       BF=100 NF=1 TF=20E-12  IKF=2.0E-3
+       BR=8   NR=1 TR=400E-12 IKR=20E-3
+       RE=15 RC=150 RB=200
+       ITF=40E-3 VTF=3 XTF=100
+       CJE=15E-15 MJE=0.5 CJC=20E-15 MJC=0.5 CJS=80E-15 MJS=0.5
