Mon Jan 21 14:55:25 EST 1991
 sun      hostid 2100046b         reading file 
/usr/project/vlsi/h9001/permit.hsp
 reading install configuration file: /usr/project/vlsi/h9001/meta.cfg
******    h s p i c e      9001b           14:55:25  21-jan91   sun           
* typical typical models                                                      
****** copyright 1990 meta-software,inc. *****site:duke_u                     
******  input listing                    evaluation expires 911130            
******
.model jfet15 njf
+ vto=-0.460 beta=2.72e-04 rsh=765 gamds=-0.006 is=3.88e-2 n=1.210 ldel=-0.385u
+ vgexp=2.55 alpha=3.94 ucrit=0.051 lambda=0.127 satexp=3.68
+ ng=0.595 nd=0.100 k1=0.204 eg=876e-03 gap1=1e-06 gap2=10 d=13.1
+ gcap=1.495e-03 crat=.1109
+ level=3 capop=1 sat=3
+ acm=1 hdif=2.615u rshl=0 rs=0 rd=0 xti=2 tlev=2
+ trs=2.24e-03 trd=2.24e-03 bex=481e-03 tcv=290e-06
 
.model jfet16 njf
+ vto=-0.871 beta=2.65e-04 rsh=1315 gamds=-0.075 is=7.66e-2 n=1.373 ldel=-0.385
u
+ vgexp=2.04 alpha=3.91 ucrit=0.88 lambda=0.037 satexp=2.58
+ ng=0.892 nd=0.100 k1=0.295 eg=865e-03 gap1=1e-06 gap2=10 d=13.1
+ gcap=1.495e-03 crat=.1109
+ level=3 capop=1 sat=3
+ acm=1 hdif=0.815u rshl=0 rs=0 rd=0 xti=2 tlev=2
+ trs=548e-06 trd=548e-06 bex=-249e-03 tcv=599e-06
 
.model jfet19 njf
+ vto=-0.798 beta=2.43e-04 rsh=850 gamds=-0.041 is=1.10e-1 n=1.315 ldel=-0.385u
+ vgexp=2.15 alpha=3.51 ucrit=0.176 lambda=0.083 satexp=2.92
+ ng=0.797 nd=0.100 k1=0.288 eg=845e-03 gap1=27e-06 gap2=210 d=13.1
+ gcap=1.495e-03 crat=.1109
+ level=3 capop=1 sat=3
+ acm=1 hdif=1.615u rshl=0 rs=0 rd=0 xti=2 tlev=2
+ trs=3.22e-03 trd=3.22e-03 bex=155e-03 tcv=882e-06
 
.model jfet20 njf
+ vgexp=2.55 alpha=3.94 ucrit=0.051 lambda=0.127 satexp=3.68
+ ng=0.595 nd=0.100 k1=0.204 eg=876e-03 gap1=1e-06 gap2=10 d=13.1
+ level=3 capop=1 sat=3
+ acm=1 hdif=2.615u rshl=0 rs=0 rd=0 xti=2 tlev=2
+ trs=2.24e-03 trd=2.24e-03 bex=481e-03 tcv=290e-06
+ gcap=1.495e-03 crat=.1109 b=1.26
+ vto=-0.779 beta=2.72e-04 rsh=765 gamds=-0.006 is=3.88e-2 n=1.210 ldel=-0.385u
*+ vto=-0.779 beta=2.72e-04 rsh=0 gamds=-0.006 is=3.88e-2 n=1.210 ldel=-0.385u
 

**warning**:  unknown model parameter:  b       

.model jfet04 njf
+ vgexp=2.35 alpha=6.53 ucrit=1e-4 lambda=0.072 satexp=3.29
+ ng=0.961 nd=0.100 k1=0.224 eg=917e-03 gap1=1e-06 gap2=10 d=13.1
+ level=3 capop=1 sat=3
+ acm=1 hdif=0.815u rshl=0 rs=0 rd=0 xti=2 tlev=2
+ trs=-1.17e-03 trd=-1.17e-03 bex=-2 tcv=1.64e-03
+ gcap=1.062e-03 crat=.1109 b=1.26
+ vto=0.227 beta=3.02e-04 rsh=2171 gamds=-0.041 is=1.02e-2 n=1.227 ldel=-0.385u
*+ vto=0.227 beta=3.02e-04 rsh=0 gamds=-0.041 is=1.02e-2 n=1.227 ldel=-0.385u
 

**warning**:  unknown model parameter:  b       

.model jfet10 njf
+ vto=0.236 beta=3.27e-04 rsh=1820 gamds=-0.024 is=1.10e-2 n=1.215 ldel=-0.385u
+ vgexp=2.00 alpha=6.28 ucrit=1e-4 lambda=0.091 satexp=3.01
+ ng=0.937 nd=0.100 k1=0.289 eg=946e-03 gap1=1e-06 gap2=10 d=13.1
+ gcap=1.062e-03 crat=.1109
+ level=3 capop=1 sat=3
+ acm=1 hdif=1.115u rshl=0 rs=0 rd=0 xti=2 tlev=2
+ trs=6.1e-03 trd=6.1e-03 bex=500e-03 tcv=476e-06
 
.model dio16 njf
+ rsh=1883 is=3.61e-2 n=1.253 ldel=-0.385u
+ eg=831e-03 gap1=54e-06 gap2=210 d=13.1
+ gcap=1.495e-03 crat=.1109
+ level=3 capop=1 sat=3
+ acm=1 hdif=0.815u rshl=0 rs=0 rd=0
+ xti=2 tlev=2
+ trs=-1.98e-03 trd=-1.98e-03
 
.model dio19 njf
+ rsh=917 is=8.00e-2 n=1.225 ldel=-0.385u
+ eg=821e-03 gap1=232e-06 gap2=210 d=13.1
+ gcap=1.495e-03 crat=.1109
+ level=3 capop=1 sat=3
+ acm=1 hdif=1.615u rshl=0 rs=0 rd=0
+ xti=2 tlev=2
+ trs=-1.79e-03 trd=-1.79e-03
 
.model dio20 njf
+ rsh=589 is=4.68e-2 n=1.220 ldel=-0.385u
+ eg=814e-03 gap1=305e-06 gap2=210 d=13.1
+ gcap=1.495e-03 crat=.1109
+ level=3 capop=1 sat=3
+ acm=1 hdif=2.615u rshl=0 rs=0 rd=0
+ xti=2 tlev=2
+ trs=-1.78e-03 trd=-1.78e-03
 
.model dio04 njf
+ rsh=2748 is=1.38e-2 n=1.207 ldel=-0.385u
+ eg=848e-03 gap1=319e-06 gap2=10 d=13.1
+ gcap=1.062e-03 crat=.1109
+ level=3 capop=1 sat=3
+ acm=1 hdif=0.815u rshl=0 rs=0 rd=0
+ xti=2 tlev=2
+ trs=-1.68e-03 trd=-1.68e-03
 
.model dio10 njf
+ rsh=2080 is=1.29e-2 n=1.205 ldel=-0.385u
+ eg=840e-03 gap1=333e-06 gap2=210 d=13.1
+ gcap=1.062e-03 crat=.1109
+ level=3 capop=1 sat=3
+ acm=1 hdif=1.115u rshl=0 rs=0 rd=0
+ xti=2 tlev=2
+ trs=-1.34e-03 trd=-1.34e-03
 
.subckt xo2 1 2 3 4 vbg
* 1 = vdd
* 2 = a1
* 3 = a2
* 4 = z
j1  1  5  5  vbg jfet20 w=4.9u  l=2.3u
j2  5  2  0  vbg jfet04 w=26u   l=1.2u
j3  1  6  6  vbg jfet20 w=4.9u  l=2.3u
j4  6  3  0  vbg jfet04 w=26u   l=1.2u
j5  1  7  7  vbg jfet20 w=4.9u  l=2.3u
j6  7  5  0  vbg jfet04 w=26u   l=1.2u
j7  7  6  0  vbg jfet04 w=26u   l=1.2u
j8  1  8  8  vbg jfet20 w=4.9u  l=2.3u
j9  8  3  0  vbg jfet04 w=26u   l=1.2u
j10 8  2  0  vbg jfet04 w=26u   l=1.2u
j11 1  4  4  vbg jfet20 w=4.9u  l=2.3u
j12 4  7  0  vbg jfet04 w=26u   l=1.2u
j13 4  8  0  vbg jfet04 w=26u   l=1.2u
.ends
.subckt inv_10x200 1 2 3 vbg
* 1 = vdd
* 2 = in
* 3 = out
j1  1  3  3  vbg  jfet20 w=3.5u  l=2.3u m=2
j2  3  2  0  vbg  jfet04 w=18.3u l=1.2u m=2
.ends
.subckt inv_10x400 1 2 3 vbg
* 1 = vdd
* 2 = in
* 3 = out
j1  1  3  3  vbg  jfet20 w=7.0u  l=2.3u m=2
j2  3  2  0  vbg  jfet04 w=36.5u l=1.2u m=2
.ends
 
*
*
************************************************************************
* simulation model for 4-input xor
************************************************************************
*.global vbg
************************************************************************
* 1  vdd
* 2  x1
* 4  x2
* 6  x3
* 8  x4
* 12 s1
************************************************************************
* pinlist
************************************************************************
x_xor1   100  2  4 23 vbg xo2
x_xor2   100  6  8 24 vbg xo2
x_xor3   100 23 24 12 vbg xo2
 
************************************************************************
* inputs
************************************************************************
vdd1     100 0 2
vdd2     1  0  2
vbg     vbg 0  0.6
 
vx1     30  0  pulse(0.0 0.65 200p 100p 100p 2000p 4000p)
 
vx2     32  0  pulse(0.0 0.0 200p 100p 100p 2000p 4000p)
 
vx3     34  0  pulse(0.0 0.0 200p 100p 100p 2000p 4000p)
 
vx4     36  0  pulse(0.0 0.0 200p 100p 100p 2000p 4000p)
 
 
 
 
 
************************************************************************
* drivers
************************************************************************
x1a   1 30 40 vbg inv_10x400
x1b   1 40  2 vbg inv_10x400
x2a   1 32 42 vbg inv_10x400
x2b   1 42  4 vbg inv_10x400
x3a   1 34 44 vbg inv_10x400
x3b   1 44  6 vbg inv_10x400
x4a   1 36 46 vbg inv_10x400
x4b   1 46  8 vbg inv_10x400
 
************************************************************************
* loads
************************************************************************
*c1  23  0 75f
*c2  24  0 75f
*c5  12  0 75f
**c1  23  0 5f
**c2  24  0 5f
**c5  12  0 5f
xls1  1 12 200 vbg inv_10x200
xls2  1 12 201 vbg inv_10x200
xls3  1 12 202 vbg inv_10x200
 
 
************************************************************************
* dcfl subcircuits
************************************************************************
* 2-input xor
 
************************************************************************
* inverter
 
************************************************************************
* inverter
************************************************************************
 
************************************************************************
* commands
************************************************************************
************************************************************************
 
 
*transient 5n
.tran 20p 5n
*plot [ v(2) v(4) v(6) v(8) v(12)]
.print tran v(2) v(12)
.options ingold=2
*plot mtest.out [ v(2) v(4) v(6) v(8) v(12)]
*gridsize mes 90 90 40
*options chargetol=1.0e-16
 
.end
 ******    h s p i c e      9001b           14:55:25  21-jan91   sun           
* typical typical models                                                      
****** copyright 1990 meta-software,inc. *****site:duke_u                     
******  circuit name directory                                                
******
circuit number to circuit name directory
number  circuitname                   definition  multiplier
    0 main circuit
    1 x_xor1.                         xo2          1.00 
    2 x_xor2.                         xo2          1.00 
    3 x_xor3.                         xo2          1.00 
    4 x1a.                            inv_10x400   1.00 
    5 x1b.                            inv_10x400   1.00 
    6 x2a.                            inv_10x400   1.00 
    7 x2b.                            inv_10x400   1.00 
    8 x3a.                            inv_10x400   1.00 
    9 x3b.                            inv_10x400   1.00 
   10 x4a.                            inv_10x400   1.00 
   11 x4b.                            inv_10x400   1.00 
   12 xls1.                           inv_10x200   1.00 
   13 xls2.                           inv_10x200   1.00 
   14 xls3.                           inv_10x200   1.00 
 ******    h s p i c e      9001b           14:55:25  21-jan91   sun           
* typical typical models                                                      
****** copyright 1990 meta-software,inc. *****site:duke_u                     
******  jfet   model parameters          tnom=  25.000 temp=  25.000          
******

***************************************************************************
***  common model parameters  model name:   0:jfet15   model type:njf   ***
***************************************************************************

    names  values   units     names  values   units     names  values   units
    -----  ------   -----     -----  ------   -----     -----  ------   -----

  1*** basic ids parameters ***
     vto=-460.00m volts     lambda= 127.00m /v          beta= 272.00uamp/v**2
       l=   0.    meters      ldel=-385.00n meters         w=   0.    meters 
    wdel=   0.    meters      hdif=   2.62u meters      ldif=   0.    meters 
   align=   0.    meters        ni=  14.50g 1/cm**3     area=   1.00         
      nd= 100.00m /v            ng= 595.00m /v     

  2*** gate diode dc parameters ***
      is=  38.80ma/m**2          n=   1.21         

  3*** capacitance parameters ***
     cgd=   1.33mf/m**2        cgs= 165.80uf/m**2       gcap=   1.50mf/m**2  
    crat= 110.90m               fc= 500.00m                m= 500.00m        
      pb= 800.00m volts         tt=   0.    secs   

  4*** parasitic resistance parameters ***
      rd=   0.    ohms          rg=   0.    ohms          rs=   0.    ohms   
     rsh= 765.00 ohm/sq        rshl   0.   ohm/sq  

  5*** temperature effect parameters ***
    telv=   2.00             telvc=   0.                 tcv= 290.00u v/deg k
     trd=   2.24m /deg         trg=   0.    /deg         trs=   2.24m /deg   
     ctd=   0.    /deg         cts=   0.    /deg         tpb=   0.    /deg   
      eg= 876.00m ev          gap1=   1.00u ev/deg      gap2=  10.00  deg    
     xti=   2.00              tref=  25.00   deg c 

  6*** noise parameters ***
      kf=   0.                  af=   1.00         

  ***  level   3  model parameters  ***

   level=   3.00                 a= 500.00n meters     alpha=   3.94         
       d=  13.10             gamds=  -6.00m            nchan= 1.5e+22 #/cm**3
     sat=   3.00               vbi=   1.00  volts         vp=   0.    volts  
   vgexp=   2.55            satexp=   3.68                k1= 204.00m        
 

***************************************************************************
***  common model parameters  model name:   0:jfet16   model type:njf   ***
***************************************************************************

    names  values   units     names  values   units     names  values   units
    -----  ------   -----     -----  ------   -----     -----  ------   -----

  1*** basic ids parameters ***
     vto=-871.00m volts     lambda=  37.00m /v          beta= 265.00uamp/v**2
       l=   0.    meters      ldel=-385.00n meters         w=   0.    meters 
    wdel=   0.    meters      hdif= 815.00n meters      ldif=   0.    meters 
   align=   0.    meters        ni=  14.50g 1/cm**3     area=   1.00         
      nd= 100.00m /v            ng= 892.00m /v     

  2*** gate diode dc parameters ***
      is=  76.60ma/m**2          n=   1.37         

  3*** capacitance parameters ***
     cgd=   1.33mf/m**2        cgs= 165.80uf/m**2       gcap=   1.50mf/m**2  
    crat= 110.90m               fc= 500.00m                m= 500.00m        
      pb= 800.00m volts         tt=   0.    secs   

  4*** parasitic resistance parameters ***
      rd=   0.    ohms          rg=   0.    ohms          rs=   0.    ohms   
     rsh=   1.32kohm/sq        rshl   0.   ohm/sq  

  5*** temperature effect parameters ***
    telv=   2.00             telvc=   0.                 tcv= 599.00u v/deg k
     trd= 548.00u /deg         trg=   0.    /deg         trs= 548.00u /deg   
     ctd=   0.    /deg         cts=   0.    /deg         tpb=   0.    /deg   
      eg= 865.00m ev          gap1=   1.00u ev/deg      gap2=  10.00  deg    
     xti=   2.00              tref=  25.00   deg c 

  6*** noise parameters ***
      kf=   0.                  af=   1.00         

  ***  level   3  model parameters  ***

   level=   3.00                 a= 500.00n meters     alpha=   3.91         
       d=  13.10             gamds= -75.00m            nchan= 1.5e+22 #/cm**3
     sat=   3.00               vbi=   1.00  volts         vp=   0.    volts  
   vgexp=   2.04            satexp=   2.58                k1= 295.00m        
 

***************************************************************************
***  common model parameters  model name:   0:jfet19   model type:njf   ***
***************************************************************************

    names  values   units     names  values   units     names  values   units
    -----  ------   -----     -----  ------   -----     -----  ------   -----

  1*** basic ids parameters ***
     vto=-798.00m volts     lambda=  83.00m /v          beta= 243.00uamp/v**2
       l=   0.    meters      ldel=-385.00n meters         w=   0.    meters 
    wdel=   0.    meters      hdif=   1.62u meters      ldif=   0.    meters 
   align=   0.    meters        ni=  14.50g 1/cm**3     area=   1.00         
      nd= 100.00m /v            ng= 797.00m /v     

  2*** gate diode dc parameters ***
      is= 110.00ma/m**2          n=   1.32         

  3*** capacitance parameters ***
     cgd=   1.33mf/m**2        cgs= 165.80uf/m**2       gcap=   1.50mf/m**2  
    crat= 110.90m               fc= 500.00m                m= 500.00m        
      pb= 800.00m volts         tt=   0.    secs   

  4*** parasitic resistance parameters ***
      rd=   0.    ohms          rg=   0.    ohms          rs=   0.    ohms   
     rsh= 850.00 ohm/sq        rshl   0.   ohm/sq  

  5*** temperature effect parameters ***
    telv=   2.00             telvc=   0.                 tcv= 882.00u v/deg k
     trd=   3.22m /deg         trg=   0.    /deg         trs=   3.22m /deg   
     ctd=   0.    /deg         cts=   0.    /deg         tpb=   0.    /deg   
      eg= 845.00m ev          gap1=  27.00u ev/deg      gap2= 210.00  deg    
     xti=   2.00              tref=  25.00   deg c 

  6*** noise parameters ***
      kf=   0.                  af=   1.00         

  ***  level   3  model parameters  ***

   level=   3.00                 a= 500.00n meters     alpha=   3.51         
       d=  13.10             gamds= -41.00m            nchan= 1.5e+22 #/cm**3
     sat=   3.00               vbi=   1.00  volts         vp=   0.    volts  
   vgexp=   2.15            satexp=   2.92                k1= 288.00m        
 

***************************************************************************
***  common model parameters  model name:   0:jfet20   model type:njf   ***
***************************************************************************

    names  values   units     names  values   units     names  values   units
    -----  ------   -----     -----  ------   -----     -----  ------   -----

  1*** basic ids parameters ***
     vto=-779.00m volts     lambda= 127.00m /v          beta= 272.00uamp/v**2
       l=   0.    meters      ldel=-385.00n meters         w=   0.    meters 
    wdel=   0.    meters      hdif=   2.62u meters      ldif=   0.    meters 
   align=   0.    meters        ni=  14.50g 1/cm**3     area=   1.00         
      nd= 100.00m /v            ng= 595.00m /v     

  2*** gate diode dc parameters ***
      is=  38.80ma/m**2          n=   1.21         

  3*** capacitance parameters ***
     cgd=   1.33mf/m**2        cgs= 165.80uf/m**2       gcap=   1.50mf/m**2  
    crat= 110.90m               fc= 500.00m                m= 500.00m        
      pb= 800.00m volts         tt=   0.    secs   

  4*** parasitic resistance parameters ***
      rd=   0.    ohms          rg=   0.    ohms          rs=   0.    ohms   
     rsh= 765.00 ohm/sq        rshl   0.   ohm/sq  

  5*** temperature effect parameters ***
    telv=   2.00             telvc=   0.                 tcv= 290.00u v/deg k
     trd=   2.24m /deg         trg=   0.    /deg         trs=   2.24m /deg   
     ctd=   0.    /deg         cts=   0.    /deg         tpb=   0.    /deg   
      eg= 876.00m ev          gap1=   1.00u ev/deg      gap2=  10.00  deg    
     xti=   2.00              tref=  25.00   deg c 

  6*** noise parameters ***
      kf=   0.                  af=   1.00         

  ***  level   3  model parameters  ***

   level=   3.00                 a= 500.00n meters     alpha=   3.94         
       d=  13.10             gamds=  -6.00m            nchan= 1.5e+22 #/cm**3
     sat=   3.00               vbi=   1.00  volts         vp=   0.    volts  
   vgexp=   2.55            satexp=   3.68                k1= 204.00m        
 

***************************************************************************
***  common model parameters  model name:   0:jfet04   model type:njf   ***
***************************************************************************

    names  values   units     names  values   units     names  values   units
    -----  ------   -----     -----  ------   -----     -----  ------   -----

  1*** basic ids parameters ***
     vto= 227.00m volts     lambda=  72.00m /v          beta= 302.00uamp/v**2
       l=   0.    meters      ldel=-385.00n meters         w=   0.    meters 
    wdel=   0.    meters      hdif= 815.00n meters      ldif=   0.    meters 
   align=   0.    meters        ni=  14.50g 1/cm**3     area=   1.00         
      nd= 100.00m /v            ng= 961.00m /v     

  2*** gate diode dc parameters ***
      is=  10.20ma/m**2          n=   1.23         

  3*** capacitance parameters ***
     cgd= 944.22uf/m**2        cgs= 117.78uf/m**2       gcap=   1.06mf/m**2  
    crat= 110.90m               fc= 500.00m                m= 500.00m        
      pb= 800.00m volts         tt=   0.    secs   

  4*** parasitic resistance parameters ***
      rd=   0.    ohms          rg=   0.    ohms          rs=   0.    ohms   
     rsh=   2.17kohm/sq        rshl   0.   ohm/sq  

  5*** temperature effect parameters ***
    telv=   2.00             telvc=   0.                 tcv=   1.64m v/deg k
     trd=  -1.17m /deg         trg=   0.    /deg         trs=  -1.17m /deg   
     ctd=   0.    /deg         cts=   0.    /deg         tpb=   0.    /deg   
      eg= 917.00m ev          gap1=   1.00u ev/deg      gap2=  10.00  deg    
     xti=   2.00              tref=  25.00   deg c 

  6*** noise parameters ***
      kf=   0.                  af=   1.00         

  ***  level   3  model parameters  ***

   level=   3.00                 a= 500.00n meters     alpha=   6.53         
       d=  13.10             gamds= -41.00m            nchan= 1.5e+22 #/cm**3
     sat=   3.00               vbi=   1.00  volts         vp=   0.    volts  
   vgexp=   2.35            satexp=   3.29                k1= 224.00m        
 

***************************************************************************
***  common model parameters  model name:   0:jfet10   model type:njf   ***
***************************************************************************

    names  values   units     names  values   units     names  values   units
    -----  ------   -----     -----  ------   -----     -----  ------   -----

  1*** basic ids parameters ***
     vto= 236.00m volts     lambda=  91.00m /v          beta= 327.00uamp/v**2
       l=   0.    meters      ldel=-385.00n meters         w=   0.    meters 
    wdel=   0.    meters      hdif=   1.12u meters      ldif=   0.    meters 
   align=   0.    meters        ni=  14.50g 1/cm**3     area=   1.00         
      nd= 100.00m /v            ng= 937.00m /v     

  2*** gate diode dc parameters ***
      is=  11.00ma/m**2          n=   1.22         

  3*** capacitance parameters ***
     cgd= 944.22uf/m**2        cgs= 117.78uf/m**2       gcap=   1.06mf/m**2  
    crat= 110.90m               fc= 500.00m                m= 500.00m        
      pb= 800.00m volts         tt=   0.    secs   

  4*** parasitic resistance parameters ***
      rd=   0.    ohms          rg=   0.    ohms          rs=   0.    ohms   
     rsh=   1.82kohm/sq        rshl   0.   ohm/sq  

  5*** temperature effect parameters ***
    telv=   2.00             telvc=   0.                 tcv= 476.00u v/deg k
     trd=   6.10m /deg         trg=   0.    /deg         trs=   6.10m /deg   
     ctd=   0.    /deg         cts=   0.    /deg         tpb=   0.    /deg   
      eg= 946.00m ev          gap1=   1.00u ev/deg      gap2=  10.00  deg    
     xti=   2.00              tref=  25.00   deg c 

  6*** noise parameters ***
      kf=   0.                  af=   1.00         

  ***  level   3  model parameters  ***

   level=   3.00                 a= 500.00n meters     alpha=   6.28         
       d=  13.10             gamds= -24.00m            nchan= 1.5e+22 #/cm**3
     sat=   3.00               vbi=   1.00  volts         vp=   0.    volts  
   vgexp=   2.00            satexp=   3.01                k1= 289.00m        
 

***************************************************************************
***  common model parameters  model name:   0:dio16    model type:njf   ***
***************************************************************************

    names  values   units     names  values   units     names  values   units
    -----  ------   -----     -----  ------   -----     -----  ------   -----

  1*** basic ids parameters ***
     vto=  -1.68  volts     lambda=   0.    /v          beta= 100.00uamp/v**2
       l=   0.    meters      ldel=-385.00n meters         w=   0.    meters 
    wdel=   0.    meters      hdif= 815.00n meters      ldif=   0.    meters 
   align=   0.    meters        ni=  14.50g 1/cm**3     area=   1.00         
      nd=   0.    /v            ng=   0.    /v     

  2*** gate diode dc parameters ***
      is=  36.10ma/m**2          n=   1.25         

  3*** capacitance parameters ***
     cgd=   1.33mf/m**2        cgs= 165.80uf/m**2       gcap=   1.50mf/m**2  
    crat= 110.90m               fc= 500.00m                m= 500.00m        
      pb= 800.00m volts         tt=   0.    secs   

  4*** parasitic resistance parameters ***
      rd=   0.    ohms          rg=   0.    ohms          rs=   0.    ohms   
     rsh=   1.88kohm/sq        rshl   0.   ohm/sq  

  5*** temperature effect parameters ***
    telv=   2.00             telvc=   0.                 tcv=   0.    v/deg k
     trd=  -1.98m /deg         trg=   0.    /deg         trs=  -1.98m /deg   
     ctd=   0.    /deg         cts=   0.    /deg         tpb=   0.    /deg   
      eg= 831.00m ev          gap1=  54.00u ev/deg      gap2= 210.00  deg    
     xti=   2.00              tref=  25.00   deg c 

  6*** noise parameters ***
      kf=   0.                  af=   1.00         

  ***  level   3  model parameters  ***

   level=   3.00                 a= 500.00n meters     alpha=   2.00         
       d=  13.10             gamds=   0.               nchan= 1.5e+22 #/cm**3
     sat=   3.00               vbi=   1.00  volts         vp=  -2.68  volts  
   vgexp=   2.00            satexp=   3.00                k1=   0.           
 

***************************************************************************
***  common model parameters  model name:   0:dio19    model type:njf   ***
***************************************************************************

    names  values   units     names  values   units     names  values   units
    -----  ------   -----     -----  ------   -----     -----  ------   -----

  1*** basic ids parameters ***
     vto=  -1.68  volts     lambda=   0.    /v          beta= 100.00uamp/v**2
       l=   0.    meters      ldel=-385.00n meters         w=   0.    meters 
    wdel=   0.    meters      hdif=   1.62u meters      ldif=   0.    meters 
   align=   0.    meters        ni=  14.50g 1/cm**3     area=   1.00         
      nd=   0.    /v            ng=   0.    /v     

  2*** gate diode dc parameters ***
      is=  80.00ma/m**2          n=   1.23         

  3*** capacitance parameters ***
     cgd=   1.33mf/m**2        cgs= 165.80uf/m**2       gcap=   1.50mf/m**2  
    crat= 110.90m               fc= 500.00m                m= 500.00m        
      pb= 800.00m volts         tt=   0.    secs   

  4*** parasitic resistance parameters ***
      rd=   0.    ohms          rg=   0.    ohms          rs=   0.    ohms   
     rsh= 917.00 ohm/sq        rshl   0.   ohm/sq  

  5*** temperature effect parameters ***
    telv=   2.00             telvc=   0.                 tcv=   0.    v/deg k
     trd=  -1.79m /deg         trg=   0.    /deg         trs=  -1.79m /deg   
     ctd=   0.    /deg         cts=   0.    /deg         tpb=   0.    /deg   
      eg= 821.00m ev          gap1= 232.00u ev/deg      gap2= 210.00  deg    
     xti=   2.00              tref=  25.00   deg c 

  6*** noise parameters ***
      kf=   0.                  af=   1.00         

  ***  level   3  model parameters  ***

   level=   3.00                 a= 500.00n meters     alpha=   2.00         
       d=  13.10             gamds=   0.               nchan= 1.5e+22 #/cm**3
     sat=   3.00               vbi=   1.00  volts         vp=  -2.68  volts  
   vgexp=   2.00            satexp=   3.00                k1=   0.           
 

***************************************************************************
***  common model parameters  model name:   0:dio20    model type:njf   ***
***************************************************************************

    names  values   units     names  values   units     names  values   units
    -----  ------   -----     -----  ------   -----     -----  ------   -----

  1*** basic ids parameters ***
     vto=  -1.68  volts     lambda=   0.    /v          beta= 100.00uamp/v**2
       l=   0.    meters      ldel=-385.00n meters         w=   0.    meters 
    wdel=   0.    meters      hdif=   2.62u meters      ldif=   0.    meters 
   align=   0.    meters        ni=  14.50g 1/cm**3     area=   1.00         
      nd=   0.    /v            ng=   0.    /v     

  2*** gate diode dc parameters ***
      is=  46.80ma/m**2          n=   1.22         

  3*** capacitance parameters ***
     cgd=   1.33mf/m**2        cgs= 165.80uf/m**2       gcap=   1.50mf/m**2  
    crat= 110.90m               fc= 500.00m                m= 500.00m        
      pb= 800.00m volts         tt=   0.    secs   

  4*** parasitic resistance parameters ***
      rd=   0.    ohms          rg=   0.    ohms          rs=   0.    ohms   
     rsh= 589.00 ohm/sq        rshl   0.   ohm/sq  

  5*** temperature effect parameters ***
    telv=   2.00             telvc=   0.                 tcv=   0.    v/deg k
     trd=  -1.78m /deg         trg=   0.    /deg         trs=  -1.78m /deg   
     ctd=   0.    /deg         cts=   0.    /deg         tpb=   0.    /deg   
      eg= 814.00m ev          gap1= 305.00u ev/deg      gap2= 210.00  deg    
     xti=   2.00              tref=  25.00   deg c 

  6*** noise parameters ***
      kf=   0.                  af=   1.00         

  ***  level   3  model parameters  ***

   level=   3.00                 a= 500.00n meters     alpha=   2.00         
       d=  13.10             gamds=   0.               nchan= 1.5e+22 #/cm**3
     sat=   3.00               vbi=   1.00  volts         vp=  -2.68  volts  
   vgexp=   2.00            satexp=   3.00                k1=   0.           
 

***************************************************************************
***  common model parameters  model name:   0:dio04    model type:njf   ***
***************************************************************************

    names  values   units     names  values   units     names  values   units
    -----  ------   -----     -----  ------   -----     -----  ------   -----

  1*** basic ids parameters ***
     vto=  -1.68  volts     lambda=   0.    /v          beta= 100.00uamp/v**2
       l=   0.    meters      ldel=-385.00n meters         w=   0.    meters 
    wdel=   0.    meters      hdif= 815.00n meters      ldif=   0.    meters 
   align=   0.    meters        ni=  14.50g 1/cm**3     area=   1.00         
      nd=   0.    /v            ng=   0.    /v     

  2*** gate diode dc parameters ***
      is=  13.80ma/m**2          n=   1.21         

  3*** capacitance parameters ***
     cgd= 944.22uf/m**2        cgs= 117.78uf/m**2       gcap=   1.06mf/m**2  
    crat= 110.90m               fc= 500.00m                m= 500.00m        
      pb= 800.00m volts         tt=   0.    secs   

  4*** parasitic resistance parameters ***
      rd=   0.    ohms          rg=   0.    ohms          rs=   0.    ohms   
     rsh=   2.75kohm/sq        rshl   0.   ohm/sq  

  5*** temperature effect parameters ***
    telv=   2.00             telvc=   0.                 tcv=   0.    v/deg k
     trd=  -1.68m /deg         trg=   0.    /deg         trs=  -1.68m /deg   