!<arch>
buf_1x          664205909   5002  80    100644  63        `
.subckt buf_1x out in
x1 n1  in not_1x
x2 out n1 not_1x
.ends


buf_fb_1p3x4x   664205897   5002  80    100644  277       `
.subckt buf_fb_1p3x4x out in
* small devices
xj1 n1 in 0 je_1p3x
xj2 Vcc n1 n1 jd_1p3x
xcj1g in 0 ce_1p3x
xcj1d n1 0 ce_1p3x
xcj2s n1 0 cd_1p3x
* large devices
xj3 out n1 0 je_4x
xj4 Vcc in out jd_4x
xcj3g n1 0 ce_4x
xcj3d out 0 ce_4x
xcj4g in 0 cd_4x
xcj4s out 0 cd_4x
.ends


buf_fb_1x3x     664205897   5002  80    100644  265       `
.subckt buf_fb_1x3x out in
* small devices
xj1 n1 in 0 je_1x
xj2 Vcc n1 n1 jd_1x
xcj1g in 0 ce_1x
xcj1d n1 0 ce_1x
xcj2s n1 0 cd_1x
* large devices
xj3 out n1 0 je_3x
xj4 Vcc in out jd_3x
xcj3g n1 0 ce_3x
xcj3d out 0 ce_3x
xcj4g in 0 cd_3x
xcj4s out 0 cd_3x
.ends


buf_fb_1x4x     664205897   5002  80    100644  265       `
.subckt buf_fb_1x4x out in
* small devices
xj1 n1 in 0 je_1x
xj2 Vcc n1 n1 jd_1x
xcj1g in 0 ce_1x
xcj1d n1 0 ce_1x
xcj2s n1 0 cd_1x
* large devices
xj3 out n1 0 je_4x
xj4 Vcc in out jd_4x
xcj3g n1 0 ce_4x
xcj3d out 0 ce_4x
xcj4g in 0 cd_4x
xcj4s out 0 cd_4x
.ends


buf_fb_2x6x     664205897   5002  80    100644  265       `
.subckt buf_fb_2x6x out in
* small devices
xj1 n1 in 0 je_2x
xj2 Vcc n1 n1 jd_2x
xcj1g in 0 ce_2x
xcj1d n1 0 ce_2x
xcj2s n1 0 cd_2x
* large devices
xj3 out n1 0 je_6x
xj4 Vcc in out jd_6x
xcj3g n1 0 ce_6x
xcj3d out 0 ce_6x
xcj4g in 0 cd_6x
xcj4s out 0 cd_6x
.ends


buf_fb_2x8x     664205897   5002  80    100644  265       `
.subckt buf_fb_2x8x out in
* small devices
xj1 n1 in 0 je_2x
xj2 Vcc n1 n1 jd_2x
xcj1g in 0 ce_2x
xcj1d n1 0 ce_2x
xcj2s n1 0 cd_2x
* large devices
xj3 out n1 0 je_8x
xj4 Vcc in out jd_8x
xcj3g n1 0 ce_8x
xcj3d out 0 ce_8x
xcj4g in 0 cd_8x
xcj4s out 0 cd_8x
.ends


buf_fb_3x10x    664205897   5002  80    100644  274       `
.subckt buf_fb_3x10x out in
* small devices
xj1 n1 in 0 je_3x
xj2 Vcc n1 n1 jd_3x
xcj1g in 0 ce_3x
xcj1d n1 0 ce_3x
xcj2s n1 0 cd_3x
* large devices3x
xj3 out n1 0 je_10x
xj4 Vcc in out jd_10x
xcj3g n1 0 ce_10x
xcj3d out 0 ce_10x
xcj4g in 0 cd_10x
xcj4s out 0 cd_10x
.ends

buf_fb_3x12x    664205898   5002  80    100644  272       `
.subckt buf_fb_3x12x out in
* small devices
xj1 n1 in 0 je_3x
xj2 Vcc n1 n1 jd_3x
xcj1g in 0 ce_3x
xcj1d n1 0 ce_3x
xcj2s n1 0 cd_3x
* large devices
xj3 out n1 0 je_12x
xj4 Vcc in out jd_12x
xcj3g n1 0 ce_12x
xcj3d out 0 ce_12x
xcj4g in 0 cd_12x
xcj4s out 0 cd_12x
.ends

buf_fb_3x8x     664205897   5002  80    100644  265       `
.subckt buf_fb_3x8x out in
* small devices
xj1 n1 in 0 je_3x
xj2 Vcc n1 n1 jd_3x
xcj1g in 0 ce_3x
xcj1d n1 0 ce_3x
xcj2s n1 0 cd_3x
* large devices
xj3 out n1 0 je_8x
xj4 Vcc in out jd_8x
xcj3g n1 0 ce_8x
xcj3d out 0 ce_8x
xcj4g in 0 cd_8x
xcj4s out 0 cd_8x
.ends


buf_fb_4x10x    664205897   5002  80    100644  272       `
.subckt buf_fb_4x10x out in
* small devices
xj1 n1 in 0 je_4x
xj2 Vcc n1 n1 jd_4x
xcj1g in 0 ce_4x
xcj1d n1 0 ce_4x
xcj2s n1 0 cd_4x
* large devices
xj3 out n1 0 je_10x
xj4 Vcc in out jd_10x
xcj3g n1 0 ce_10x
xcj3d out 0 ce_10x
xcj4g in 0 cd_10x
xcj4s out 0 cd_10x
.ends

buf_fb_4x12x    664205898   5002  80    100644  272       `
.subckt buf_fb_4x12x out in
* small devices
xj1 n1 in 0 je_4x
xj2 Vcc n1 n1 jd_4x
xcj1g in 0 ce_4x
xcj1d n1 0 ce_4x
xcj2s n1 0 cd_4x
* large devices
xj3 out n1 0 je_12x
xj4 Vcc in out jd_12x
xcj3g n1 0 ce_12x
xcj3d out 0 ce_12x
xcj4g in 0 cd_12x
xcj4s out 0 cd_12x
.ends

buf_fb_6x16x    664205898   5002  80    100644  272       `
.subckt buf_fb_6x16x out in
* small devices
xj1 n1 in 0 je_6x
xj2 Vcc n1 n1 jd_6x
xcj1g in 0 ce_6x
xcj1d n1 0 ce_6x
xcj2s n1 0 cd_6x
* large devices
xj3 out n1 0 je_16x
xj4 Vcc in out jd_16x
xcj3g n1 0 ce_16x
xcj3d out 0 ce_16x
xcj4g in 0 cd_16x
xcj4s out 0 cd_16x
.ends

buf_fb_6x20x    664205898   5002  80    100644  272       `
.subckt buf_fb_6x20x out in
* small devices
xj1 n1 in 0 je_6x
xj2 Vcc n1 n1 jd_6x
xcj1g in 0 ce_6x
xcj1d n1 0 ce_6x
xcj2s n1 0 cd_6x
* large devices
xj3 out n1 0 je_20x
xj4 Vcc in out jd_20x
xcj3g n1 0 ce_20x
xcj3d out 0 ce_20x
xcj4g in 0 cd_20x
xcj4s out 0 cd_20x
.ends

buf_fb_8x20x    664205898   5002  80    100644  272       `
.subckt buf_fb_8x20x out in
* small devices
xj1 n1 in 0 je_8x
xj2 Vcc n1 n1 jd_8x
xcj1g in 0 ce_8x
xcj1d n1 0 ce_8x
xcj2s n1 0 cd_8x
* large devices
xj3 out n1 0 je_20x
xj4 Vcc in out jd_20x
xcj3g n1 0 ce_20x
xcj3d out 0 ce_20x
xcj4g in 0 cd_20x
xcj4s out 0 cd_20x
.ends

buf_fb_8x24x    664205898   5002  80    100644  272       `
.subckt buf_fb_8x24x out in
* small devices
xj1 n1 in 0 je_8x
xj2 Vcc n1 n1 jd_8x
xcj1g in 0 ce_8x
xcj1d n1 0 ce_8x
xcj2s n1 0 cd_8x
* large devices
xj3 out n1 0 je_24x
xj4 Vcc in out jd_24x
xcj3g n1 0 ce_24x
xcj3d out 0 ce_24x
xcj4g in 0 cd_24x
xcj4s out 0 cd_24x
.ends

buf_fb_p7x2x    664205897   5002  80    100644  271       `
.subckt buf_fb_p7x2x out in
* small devices
xj1 n1 in 0 je_p7x
xj2 Vcc n1 n1 jd_p7x
xcj1g in 0 ce_p7x
xcj1d n1 0 ce_p7x
xcj2s n1 0 cd_p7x
* large devices
xj3 out n1 0 je_2x
xj4 Vcc in out jd_2x
xcj3g n1 0 ce_2x
xcj3d out 0 ce_2x
xcj4g in 0 cd_2x
xcj4s out 0 cd_2x
.ends


cd_10x          664205890   5002  80    100644  42        `
.subckt cd_10x na nc
cg na nc 6.2f
.ends

cd_12x          664205891   5002  80    100644  43        `
.subckt cd_12x na nc
cg na nc 7.44f
.ends


cd_14x          664205891   5002  80    100644  43        `
.subckt cd_14x na nc
cg na nc 8.68f
.ends


cd_16x          664205891   5002  80    100644  43        `
.subckt cd_16x na nc
cg na nc 9.92f
.ends


cd_18x          664205891   5002  80    100644  44        `
.subckt cd_18x na nc
cg na nc 11.16f
.ends

cd_1p3x         664205890   5002  80    100644  43        `
.subckt cd_1p3x na nc
cg na nc .88f
.ends


cd_1x           664205890   5002  80    100644  41        `
.subckt cd_1x na nc
cg na nc .72f
.ends


cd_20x          664205891   5002  80    100644  43        `
.subckt cd_20x na nc
cg na nc 12.4f
.ends


cd_22x          664205891   5002  80    100644  44        `
.subckt cd_22x na nc
cg na nc 13.64f
.ends

cd_24x          664205891   5002  80    100644  44        `
.subckt cd_24x na nc
cg na nc 14.88f
.ends

cd_2x           664205890   5002  80    100644  42        `
.subckt cd_2x na nc
cg na nc 1.24f
.ends

cd_3x           664205890   5002  80    100644  42        `
.subckt cd_3x na nc
cg na nc 1.72f
.ends

cd_4x           664205890   5002  80    100644  42        `
.subckt cd_4x na nc
cg na nc 2.24f
.ends

cd_6x           664205890   5002  80    100644  42        `
.subckt cd_6x na nc
cg na nc 3.72f
.ends

cd_8x           664205890   5002  80    100644  42        `
.subckt cd_8x na nc
cg na nc 4.96f
.ends

cd_p5x          664205890   5002  80    100644  41        `
.subckt cd_p5x na nc
cg na nc .8f
.ends


cd_p7x          664205890   5002  80    100644  41        `
.subckt cd_p7x na nc
cg na nc .8f
.ends


ce_10x          664205889   5002  80    100644  41        `
.subckt ce_10x na nc
cg na nc 26f
.ends


ce_12x          664205889   5002  80    100644  43        `
.subckt ce_12x na nc
cg na nc 31.2f
.ends


ce_14x          664205889   5002  80    100644  43        `
.subckt ce_14x na nc
cg na nc 36.4f
.ends


ce_16x          664205890   5002  80    100644  43        `
.subckt ce_16x na nc
cg na nc 41.6f
.ends


ce_18x          664205890   5002  80    100644  43        `
.subckt ce_18x na nc
cg na nc 46.8f
.ends


ce_1p3x         664205889   5002  80    100644  44        `
.subckt ce_1p3x na nc
cg na nc 3.44f
.ends

ce_1x           664205889   5002  80    100644  41        `
.subckt ce_1x na nc
cg na nc 2.6f
.ends


ce_20x          664205890   5002  80    100644  41        `
.subckt ce_20x na nc
cg na nc 52f
.ends


ce_22x          664205890   5002  80    100644  43        `
.subckt ce_22x na nc
cg na nc 57.2f
.ends


ce_24x          664205890   5002  80    100644  43        `
.subckt ce_24x na nc
cg na nc 62.4f
.ends


ce_2x           664205889   5002  80    100644  41        `
.subckt ce_2x na nc
cg na nc 5.2f
.ends


ce_3x           664205889   5002  80    100644  41        `
.subckt ce_3x na nc
cg na nc 7.8f
.ends


ce_4x           664205889   5002  80    100644  42        `
.subckt ce_4x na nc
cg na nc 10.4f
.ends

ce_6x           664205889   5002  80    100644  42        `
.subckt ce_6x na nc
cg na nc 15.6f
.ends

ce_8x           664205889   5002  80    100644  42        `
.subckt ce_8x na nc
cg na nc 20.8f
.ends

ce_p5x          664205889   5002  80    100644  43        `
.subckt ce_p5x na nc
cg na nc 1.36f
.ends


ce_p7x          664205889   5002  80    100644  43        `
.subckt ce_p7x na nc
cg na nc 1.72f
.ends


dio04           664205886   5002  80    100644  236       `
.model dio04 nmf 
+ rsh=2292 is=1.93e-2 n=1.207 ldel=-0.400u
+ eg=848e-03 gap1=319e-06 gap2=10 d=13.1 
+ gcap=1.5e-3 crat=0.666
+ level=3 capop=1 sat=3
+ acm=1 hdif=0.815u rshl=0 rs=0 rd=0 
+ xti=2 tlev=2
+ trs=-1.68e-03 trd=-1.68e-03

dio10           664205886   5002  80    100644  258       `
.model dio10 nmf 
+ rsh=1724 is=1.80e-2 n=1.205 ldel=-0.400u
+ eg=840e-03 gap1=333e-06 gap2=210 d=13.1 
+ gcap=1.5e-3 crat=0.666
+ level=3 capop=1 sat=3
+ acm=1 hdif=1.115u rshl=0 rs=0 rd=0 
+ xti=2 tlev=2
+ trs=-1.34e-03 trd=-1.34e-03 
*	Nominal conditions
dio16           664205886   5002  80    100644  236       `
.model dio16 nmf 
+ rsh=1575 is=5.04e-2 n=1.253 ldel=-0.400u
+ eg=831e-03 gap1=54e-06 gap2=210 d=13.1
+ gcap=2.1e-3 crat=0.666
+ level=3 capop=1 sat=3
+ acm=1 hdif=0.815u rshl=0 rs=0 rd=0 
+ xti=2 tlev=2
+ trs=-1.98e-03 trd=-1.98e-03 

dio19           664205886   5002  80    100644  237       `
.model dio19 nmf 
+ rsh=759 is=1.12e-1 n=1.225 ldel=-0.400u
+ eg=821e-03 gap1=232e-06 gap2=210 d=13.1 
+ gcap=2.1e-3 crat=0.666
+ level=3 capop=1 sat=3
+ acm=1 hdif=1.615u rshl=0 rs=0 rd=0 
+ xti=2 tlev=2
+ trs=-1.79e-03 trd=-1.79e-03 


dio20           664205886   5002  80    100644  237       `
.model dio20 nmf 
+ rsh=499 is=6.53e-2 n=1.220 ldel=-0.400u
+ eg=814e-03 gap1=305e-06 gap2=210 d=13.1 
+ gcap=2.1e-3 crat=0.666
+ level=3 capop=1 sat=3
+ acm=1 hdif=2.615u rshl=0 rs=0 rd=0 
+ xti=2 tlev=2
+ trs=-1.78e-03 trd=-1.78e-03 


dio_10x         664205888   5002  80    100644  83        `
.subckt dio_10x npos nneg
zdiode nneg npos nneg VBG dio16 W=3.1u L=2.4u M=5
.ends


dio_12x         664205888   5002  80    100644  83        `
.subckt dio_12x npos nneg
zdiode nneg npos nneg VBG dio16 W=3.1u L=2.4u M=6
.ends


dio_14x         664205888   5002  80    100644  83        `
.subckt dio_14x npos nneg
zdiode nneg npos nneg VBG dio16 W=3.1u L=2.4u M=7
.ends


dio_16x         664205888   5002  80    100644  83        `
.subckt dio_16x npos nneg
zdiode nneg npos nneg VBG dio16 W=3.1u L=2.4u M=8
.ends


dio_18x         664205888   5002  80    100644  83        `
.subckt dio_18x npos nneg
zdiode nneg npos nneg VBG dio16 W=3.1u L=2.4u M=9
.ends


dio_1p3x        664205888   5002  80    100644  80        `
.subckt dio_1p3x npos nneg
zdiode nneg npos nneg VBG dio19 W=2.2u L=2.4u
.ends

dio_1x          664205888   5002  80    100644  78        `
.subckt dio_1x npos nneg
zdiode nneg npos nneg VBG dio19 W=1.8u L=2.4u
.ends

dio_20x         664205889   5002  80    100644  84        `
.subckt dio_20x npos nneg
zdiode nneg npos nneg VBG dio16 W=3.1u L=2.4u M=10
.ends

dio_22x         664205889   5002  80    100644  84        `
.subckt dio_22x npos nneg
zdiode nneg npos nneg VBG dio16 W=3.1u L=2.4u M=11
.ends

dio_24x         664205889   5002  80    100644  84        `
.subckt dio_24x npos nneg
zdiode nneg npos nneg VBG dio16 W=3.1u L=2.4u M=12
.ends

dio_2x          664205888   5002  80    100644  78        `
.subckt dio_2x npos nneg
zdiode nneg npos nneg VBG dio19 W=3.1u L=2.4u
.ends

dio_3x          664205888   5002  80    100644  78        `
.subckt dio_3x npos nneg
zdiode nneg npos nneg VBG dio19 W=4.3u L=2.4u
.ends

dio_4x          664205888   5002  80    100644  78        `
.subckt dio_4x npos nneg
zdiode nneg npos nneg VBG dio19 W=5.6u L=2.4u
.ends

dio_6x          664205888   5002  80    100644  82        `
.subckt dio_6x npos nneg
zdiode nneg npos nneg VBG dio16 W=3.1u L=2.4u M=3
.ends

dio_8x          664205888   5002  80    100644  82        `
.subckt dio_8x npos nneg
zdiode nneg npos nneg VBG dio16 W=3.1u L=2.4u M=4
.ends

dio_p5x         664205888   5002  80    100644  79        `
.subckt dio_p5x npos nneg
zdiode nneg npos nneg VBG dio20 W=2.0u L=5.4u
.ends


dio_p7x         664205888   5002  80    100644  79        `
.subckt dio_p7x npos nneg
zdiode nneg npos nneg VBG dio20 W=2.0u L=3.8u
.ends


ffce_1x         664205908   5002  80    100644  234       `
.subckt ffce_1x q s0 s1 s2 si clk d
x1 7 d s0 10 nor3_p5x
x2 8 si s1 10 nor3_p5x
x3 9 s2 q 10 nor3_p5x
x4 12 7 8 9 11 nor4_p7x
X5 11 13 12 nor2_1X
X6 q 11 14 nor2_1x
x7 14 q clk nor2_1x
x8 13 clk not_1x
x9 10 13 not_1x
.ends ffce_1x

ffce_3x         664205908   5002  80    100644  267       `
.subckt ffce_3x q qbuf s0 s1 s2 si clk d
x1 7 d s0 10  nor3_1x
x2 8 si s1 10  nor3_1x
x3 9 s2 q 10  nor3_1x
x4 12 7 8 9 11  nor4_1p3x
x5 11 13 12  nor2_3x
x6 q 11 14 nor2_1p3x
x7 14 q clk nor2_2x
x10 qbuf 11 14 nor2_3x
x8 13 clk not_2x
x9 10 13 not_1x
.ends ffce_3x


jd_10x          664205887   5002  80    100644  93        `
.subckt jd_10x drain gate source
zdfet drain gate source VBG jfet16 W=3.1u L=2.4u M=5
.ends


jd_12x          664205887   5002  80    100644  93        `
.subckt jd_12x drain gate source
zdfet drain gate source VBG jfet16 W=3.1u L=2.4u M=6
.ends


jd_14x          664205887   5002  80    100644  93        `
.subckt jd_14x drain gate source
zdfet drain gate source VBG jfet16 W=3.1u L=2.4u M=7
.ends


jd_16x          664205888   5002  80    100644  93        `
.subckt jd_16x drain gate source
zdfet drain gate source VBG jfet16 W=3.1u L=2.4u M=8
.ends


jd_18x          664205888   5002  80    100644  93        `
.subckt jd_18x drain gate source
zdfet drain gate source VBG jfet16 W=3.1u L=2.4u M=9
.ends


jd_1p3x         664205887   5002  80    100644  90        `
.subckt jd_1p3x drain gate source
zdfet drain gate source VBG jfet19 W=2.2u L=2.4u
.ends

jd_1x           664205887   5002  80    100644  88        `
.subckt jd_1x drain gate source
zdfet drain gate source VBG jfet19 W=1.8u L=2.4u
.ends

jd_20x          664205888   5002  80    100644  94        `
.subckt jd_20x drain gate source
zdfet drain gate source VBG jfet16 W=3.1u L=2.4u M=10
.ends

jd_22x          664205888   5002  80    100644  94        `
.subckt jd_22x drain gate source
zdfet drain gate source VBG jfet16 W=3.1u L=2.4u M=11
.ends

jd_24x          664205888   5002  80    100644  94        `
.subckt jd_24x drain gate source
zdfet drain gate source VBG jfet16 W=3.1u L=2.4u M=12
.ends

jd_2x           664205887   5002  80    100644  88        `
.subckt jd_2x drain gate source
zdfet drain gate source VBG jfet19 W=3.1u L=2.4u
.ends

jd_3x           664205887   5002  80    100644  88        `
.subckt jd_3x drain gate source
zdfet drain gate source VBG jfet19 W=4.3u L=2.4u
.ends

jd_4x           664205887   5002  80    100644  88        `
.subckt jd_4x drain gate source
zdfet drain gate source VBG jfet19 W=5.6u L=2.4u
.ends

jd_6x           664205887   5002  80    100644  92        `
.subckt jd_6x drain gate source
zdfet drain gate source VBG jfet16 W=3.1u L=2.4u M=3
.ends

jd_8x           664205887   5002  80    100644  92        `
.subckt jd_8x drain gate source
zdfet drain gate source VBG jfet16 W=3.1u L=2.4u M=4
.ends

jd_p5x          664205887   5002  80    100644  89        `
.subckt jd_p5x drain gate source
zdfet drain gate source VBG jfet20 W=2.0u L=5.4u
.ends


jd_p7x          664205887   5002  80    100644  89        `
.subckt jd_p7x drain gate source
zdfet drain gate source VBG jfet20 W=2.0u L=3.8u
.ends


je_10x          664205886   5002  80    100644  91        `
.subckt je_10x drain gate source
ze drain gate source VBG jfet04 W=6.5u L=1.0u M=10
.ends


je_12x          664205887   5002  80    100644  91        `
.subckt je_12x drain gate source
ze drain gate source VBG jfet04 W=6.5u L=1.0u M=12
.ends


je_14x          664205887   5002  80    100644  91        `
.subckt je_14x drain gate source
ze drain gate source VBG jfet04 W=6.5u L=1.0u M=14
.ends


je_16x          664205887   5002  80    100644  91        `
.subckt je_16x drain gate source
ze drain gate source VBG jfet04 W=6.5u L=1.0u M=16
.ends


je_18x          664205887   5002  80    100644  91        `
.subckt je_18x drain gate source
ze drain gate source VBG jfet04 W=6.5u L=1.0u M=18
.ends


je_1p3x         664205886   5002  80    100644  87        `
.subckt je_1p3x drain gate source
ze drain gate source VBG jfet04 W=8.6u L=1.0u
.ends


je_1x           664205886   5002  80    100644  85        `
.subckt je_1x drain gate source
ze drain gate source VBG jfet04 W=6.5u L=1.0u
.ends


je_20x          664205887   5002  80    100644  91        `
.subckt je_20x drain gate source
ze drain gate source VBG jfet04 W=6.5u L=1.0u M=20
.ends


je_22x          664205887   5002  80    100644  91        `
.subckt je_22x drain gate source
ze drain gate source VBG jfet04 W=6.5u L=1.0u M=22
.ends


je_24x          664205887   5002  80    100644  91        `
.subckt je_24x drain gate source
ze drain gate source VBG jfet04 W=6.5u L=1.0u M=24
.ends


je_2x           664205886   5002  80    100644  86        `
.subckt je_2x drain gate source
ze drain gate source VBG jfet04 W=13.0u L=1.0u
.ends

je_3x           664205886   5002  80    100644  86        `
.subckt je_3x drain gate source
ze drain gate source VBG jfet04 W=19.5u L=1.0u
.ends

je_4x           664205886   5002  80    100644  86        `
.subckt je_4x drain gate source
ze drain gate source VBG jfet04 W=26.0u L=1.0u
.ends

je_6x           664205886   5002  80    100644  89        `
.subckt je_6x drain gate source
ze drain gate source VBG jfet04 W=6.5u L=1.0u M=6
.ends


je_8x           664205886   5002  80    100644  89        `
.subckt je_8x drain gate source
ze drain gate source VBG jfet04 W=6.5u L=1.0u M=8
.ends


je_p5x          664205886   5002  80    100644  86        `
.subckt je_p5x drain gate source
ze drain gate source VBG jfet04 W=3.4u L=1.0u
.ends

je_p7x          664205886   5002  80    100644  86        `
.subckt je_p7x drain gate source
ze drain gate source VBG jfet04 W=4.3u L=1.0u
.ends

jfet04          664205886   5002  80    100644  376       `
.model jfet04 nmf 
+ vto=0.227 beta=3.16e-04 rsh=1736 gamds=-0.041 is=1.02e-2 n=1.227 ldel=-0.400u
+ vgexp=2.35 alpha=6.53 ucrit=1e-4 lambda=0.072 satexp=3.29
+ ng=1.100 nd=0.200 k1=0.200 eg=917e-03 gap1=1e-06 gap2=10 d=13.1
+ gcap=1.5e-3 crat=0.666
+ level=3 capop=1 sat=3
+ acm=1 hdif=0.815u rshl=0 rs=0 rd=0 xti=2 tlev=2 
+ trs=-1.17e-03 trd=-1.17e-03 bex=-2 tcv=1.64e-03

jfet10          664205886   5002  80    100644  377       `
.model jfet10 nmf 
+ vto=0.276 beta=3.38e-04 rsh=1496 gamds=-0.024 is=1.10e-2 n=1.215 ldel=-0.400u
+ vgexp=2.38 alpha=6.28 ucrit=1e-4 lambda=0.091 satexp=3.01
+ ng=1.100 nd=0.200 k1=0.200 eg=946e-03 gap1=1e-06 gap2=10 d=13.1 
+ gcap=1.5e-3 crat=0.666
+ level=3 capop=1 sat=3
+ acm=1 hdif=1.115u rshl=0 rs=0 rd=0 xti=2 tlev=2 
+ trs=6.1e-03 trd=6.1e-03 bex=500e-03 tcv=476e-06


jfet15          664205885   5002  80    100644  394       `
.model jfet15 nmf 
+ vto=-0.479 beta=2.72e-04 rsh=604 gamds=-0.006 is=3.88e-12 n=1.224 ldel=-0.400u
+ vgexp=2.55 alpha=3.94 ucrit=0.051 lambda=0.127 satexp=3.68
+ ng=1.100 nd=0.200 k1=0.200 eg=876e-03 gap1=1e-06 gap2=10 d=13.1 
+ gcap=2.1e-3 crat=0.666 wdel=-0.525u
+ level=3 capop=1 sat=3
+ acm=1 hdif=2.615u rshl=0 rs=0 rd=0 xti=2 tlev=2 
+ trs=2.24e-03 trd=2.24e-03 bex=481e-03 tcv=290e-06

jfet16          664205885   5002  80    100644  392       `
.model jfet16 nmf 
+ vto=-0.896 beta=3.08e-04 rsh=1042 gamds=-0.075 is=7.66e-2 n=1.383 ldel=-0.400u
+ vgexp=2.04 alpha=3.91 ucrit=0.88 lambda=0.037 satexp=2.58
+ ng=1.100 nd=0.250 k1=0.200 eg=865e-03 gap1=1e-06 gap2=10 d=13.1 
+ gcap=2.1e-3 crat=0.666 wdel=-0.525u
+ level=3 capop=1 sat=3
+ acm=1 hdif=0.815u rshl=0 rs=0 rd=0 xti=2 tlev=2 
+ trs=548e-06 trd=548e-06 bex=-249e-03 tcv=599e-06

jfet19          664205885   5002  80    100644  395       `
.model jfet19 nmf 
+ vto=-0.819 beta=2.83e-04 rsh=668 gamds=-0.041 is=1.10e-1 n=1.326 ldel=-0.400u
+ vgexp=2.15 alpha=3.51 ucrit=0.176 lambda=0.083 satexp=2.92
+ ng=1.100 nd=0.250 k1=0.200 eg=845e-03 gap1=27e-06 gap2=210 d=13.1 
+ gcap=2.1e-3 crat=0.666 wdel=-0.525u
+ level=3 capop=1 sat=3
+ acm=1 hdif=1.615u rshl=0 rs=0 rd=0 xti=2 tlev=2 
+ trs=3.22e-03 trd=3.22e-03 bex=155e-03 tcv=882e-06


jfet20          664205886   5002  80    100644  393       `
.model jfet20 nmf 
+ vto=-0.798 beta=3.14e-04 rsh=604 gamds=-0.006 is=3.88e-2 n=1.224 ldel=-0.400u
+ vgexp=2.55 alpha=3.94 ucrit=0.051 lambda=0.127 satexp=3.68
+ ng=1.100 nd=0.250 k1=0.200 eg=876e-03 gap1=1e-06 gap2=10 d=13.1 
+ gcap=2.1e-3 crat=0.666 wdel=-0.525u
+ level=3 capop=1 sat=3
+ acm=1 hdif=2.615u rshl=0 rs=0 rd=0 xti=2 tlev=2 
+ trs=2.24e-03 trd=2.24e-03 bex=481e-03 tcv=290e-06


load_1p3x       664205897   5002  80    100644  94        `
.subckt load_1p3x node
xje1 n1 node 0 jei_1p3x
xjd Vcc n1 n1 jd_1p3x
xd1 n1 0 dio_1p3x
.ends

load_1x         664205897   5002  80    100644  85        `
.subckt load_1x node
xje1 n1 node 0 je_1x
xjd Vcc n1 n1 jd_1x
xd1 n1 0 dio_1x
.ends


load_2x         664205897   5002  80    100644  86        `
.subckt load_2x node
xje1 n1 node 0 jei_2x
xjd Vcc n1 n1 jd_2x
xd1 n1 0 dio_2x
.ends

load_3x         664205897   5002  80    100644  85        `
.subckt load_3x node
xje1 n1 node 0 je_3x
xjd Vcc n1 n1 jd_3x
xd1 n1 0 dio_3x
.ends


load_4x         664205897   5002  80    100644  85        `
.subckt load_4x node
xje1 n1 node 0 je_4x
xjd Vcc n1 n1 jd_4x
xd1 n1 0 dio_4x
.ends


load_p5x        664205896   5002  80    100644  88        `
.subckt load_p5x node
xje n1 node 0 je_p5x
xjd Vcc n1 n1 jd_p5x
xd1 n1 0 dio_p5x
.ends

load_p7x        664205896   5002  80    100644  89        `
.subckt load_p7x node
xje1 n1 node 0 je_p7x
xjd Vcc n1 n1 jd_p7x
xd1 n1 0 dio_p7x
.ends


mux21_1x        664205908   5002  80    100644  115       `
.subckt mux21_1x out in1 in2 sel1 sel2
x1 n1 in1 sel1 nor2_p5x
x2 n2 in2 sel2 nor2_p5x
x3 out n1 n2 nor2_1x
.ends


mux21_2x        664205908   5002  80    100644  115       `
.subckt mux21_2x out in1 in2 sel1 sel2
x1 n1 in1 sel1 nor2_p7x
x2 n2 in2 sel2 nor2_p7x
x3 out n1 n2 nor2_2x
.ends


mux21_4x        664205908   5002  80    100644  117       `
.subckt mux21_4x out in1 in2 sel1 sel2
x1 n1 in1 sel1 nor2_1p3x
x2 n2 in2 sel2 nor2_1p3x
x3 out n1 n2 nor2_4x
.ends


mux21_p5x       664205908   5002  80    100644  117       `
.subckt mux21_p5x out in1 in2 sel1 sel2
x1 n1 in1 sel1 nor2_p5x
x2 n2 in2 sel2 nor2_p5x
x3 out n1 n2 nor2_p5x
.ends


mux31_1x        664205909   5002  80    100644  151       `
.subckt mux31_1x out in1 in2 in3 sel1 sel2 sel3
x1 n1 in1 sel1 nor2_p5x
x2 n2 in2 sel2 nor2_p5x
x3 n3 in3 sel3 nor2_p5x
x4 out n1 n2 n3 nor3_1x
.ends


mux31_2x        664205909   5002  80    100644  151       `
.subckt mux31_2x out in1 in2 in3 sel1 sel2 sel3
x1 n1 in1 sel1 nor2_p7x
x2 n2 in2 sel2 nor2_p7x
x3 n3 in3 sel3 nor2_p7x
x4 out n1 n2 n3 nor3_2x
.ends


mux31_4x        664205909   5002  80    100644  154       `
.subckt mux31_4x out in1 in2 in3 sel1 sel2 sel3
x1 n1 in1 sel1 nor2_1p3x
x2 n2 in2 sel2 nor2_1p3x
x3 n3 in3 sel3 nor2_1p3x
x4 out n1 n2 n3 nor3_4x
.ends

mux31_p5x       664205909   5002  80    100644  153       `
.subckt mux31_p5x out in1 in2 in3 sel1 sel2 sel3
x1 n1 in1 sel1 nor2_p5x
x2 n2 in2 sel2 nor2_p5x
x3 n3 in3 sel3 nor2_p5x
x4 out n1 n2 n3 nor3_p5x
.ends


mux41_1x        664205909   5002  80    100644  187       `
.subckt mux41_1x out in1 in2 in3 in4 sel1 sel2 sel3 sel4
x1 n1 in1 sel1 nor2_p5x
x2 n2 in2 sel2 nor2_p5x
x3 n3 in3 sel3 nor2_p5x
x4 n4 in4 sel4 nor2_p5x
x5 out n1 n2 n3 n4 nor4_1x
.ends


mux41_2x        664205909   5002  80    100644  187       `
.subckt mux41_2x out in1 in2 in3 in4 sel1 sel2 sel3 sel4
x1 n1 in1 sel1 nor2_p7x
x2 n2 in2 sel2 nor2_p7x
x3 n3 in3 sel3 nor2_p7x
x4 n4 in4 sel4 nor2_p7x
x5 out n1 n2 n3 n4 nor4_2x
.ends


mux41_4x        664205909   5002  80    100644  191       `
.subckt mux41_4x out in1 in2 in3 in4 sel1 sel2 sel3 sel4
x1 n1 in1 sel1 nor2_1p3x
x2 n2 in2 sel2 nor2_1p3x
x3 n3 in3 sel3 nor2_1p3x
x4 n4 in4 sel4 nor2_1p3x
x5 out n1 n2 n3 n4 nor4_4x
.ends


mux41_p5x       664205909   5002  80    100644  189       `
.subckt mux41_p5x out in1 in2 in3 in4 sel1 sel2 sel3 sel4
x1 n1 in1 sel1 nor2_p5x
x2 n2 in2 sel2 nor2_p5x
x3 n3 in3 sel3 nor2_p5x
x4 n4 in4 sel4 nor2_p5x
x5 out n1 n2 n3 n4 nor4_p5x
.ends


nor2_10x        664205893   5002  80    100644  185       `
.subckt nor2_10x out in1 in2
xj1 Vcc out out jd_10x
xj2 out in1 0 je_10x
xj3 out in2 0 je_10x
xcin1  in1 0 ce_10x
xcin2  in2 0 ce_10x
xcoutd out 0 cd_10x
xcoute out 0 ce_10x M=2
.ends


nor2_12x        664205893   5002  80    100644  185       `
.subckt nor2_12x out in1 in2
xj1 Vcc out out jd_12x
xj2 out in1 0 je_12x
xj3 out in2 0 je_12x
xcin1  in1 0 ce_12x
xcin2  in2 0 ce_12x
xcoutd out 0 cd_12x
xcoute out 0 ce_12x M=2
.ends


nor2_14x        664205893   5002  80    100644  185       `
.subckt nor2_14x out in1 in2
xj1 Vcc out out jd_14x
xj2 out in1 0 je_14x
xj3 out in2 0 je_14x
xcin1  in1 0 ce_14x
xcin2  in2 0 ce_14x
xcoutd out 0 cd_14x
xcoute out 0 ce_14x M=2
.ends


nor2_16x        664205893   5002  80    100644  185       `
.subckt nor2_16x out in1 in2
xj1 Vcc out out jd_16x
xj2 out in1 0 je_16x
xj3 out in2 0 je_16x
xcin1  in1 0 ce_16x
xcin2  in2 0 ce_16x
xcoutd out 0 cd_16x
xcoute out 0 ce_16x M=2
.ends


nor2_18x        664205894   5002  80    100644  185       `
.subckt nor2_18x out in1 in2
xj1 Vcc out out jd_18x
xj2 out in1 0 je_18x
xj3 out in2 0 je_18x
xcin1  in1 0 ce_18x
xcin2  in2 0 ce_18x
xcoutd out 0 cd_18x
xcoute out 0 ce_18x M=2
.ends


nor2_1p3x       664205893   5002  80    100644  193       `
.subckt nor2_1p3x out in1 in2
xj1 Vcc out out jd_1p3x
xj2 out in1 0 je_1p3x
xj3 out in2 0 je_1p3x
xcin1  in1 0 ce_1p3x
xcin2  in2 0 ce_1p3x
xcoutd out 0 cd_1p3x
xcoute out 0 ce_1p3x M=2
.ends


nor2_1x         664205892   5002  80    100644  177       `
.subckt nor2_1x out in1 in2
xj1 Vcc out out jd_1x
xj2 out in1 0 je_1x
xj3 out in2 0 je_1x
xcin1  in1 0 ce_1x
xcin2  in2 0 ce_1x
xcoutd out 0 cd_1x
xcoute out 0 ce_1x M=2
.ends


nor2_20x        664205894   5002  80    100644  185       `
.subckt nor2_20x out in1 in2
xj1 Vcc out out jd_20x
xj2 out in1 0 je_20x
xj3 out in2 0 je_20x
xcin1  in1 0 ce_20x
xcin2  in2 0 ce_20x
xcoutd out 0 cd_20x
xcoute out 0 ce_20x M=2
.ends


nor2_22x        664205894   5002  80    100644  185       `
.subckt nor2_22x out in1 in2
xj1 Vcc out out jd_22x
xj2 out in1 0 je_22x
xj3 out in2 0 je_22x
xcin1  in1 0 ce_22x
xcin2  in2 0 ce_22x
xcoutd out 0 cd_22x
xcoute out 0 ce_22x M=2
.ends


nor2_24x        664205894   5002  80    100644  185       `
.subckt nor2_24x out in1 in2
xj1 Vcc out out jd_24x
xj2 out in1 0 je_24x
xj3 out in2 0 je_24x
xcin1  in1 0 ce_24x
xcin2  in2 0 ce_24x
xcoutd out 0 cd_24x
xcoute out 0 ce_24x M=2
.ends


nor2_2x         664205893   5002  80    100644  177       `
.subckt nor2_2x out in1 in2
xj1 Vcc out out jd_2x
xj2 out in1 0 je_2x
xj3 out in2 0 je_2x
xcin1  in1 0 ce_2x
xcin2  in2 0 ce_2x
xcoutd out 0 cd_2x
xcoute out 0 ce_2x M=2
.ends


nor2_3x         664205893   5002  80    100644  177       `
.subckt nor2_3x out in1 in2
xj1 Vcc out out jd_3x
xj2 out in1 0 je_3x
xj3 out in2 0 je_3x
xcin1  in1 0 ce_3x
xcin2  in2 0 ce_3x
xcoutd out 0 cd_3x
xcoute out 0 ce_3x M=2
.ends


nor2_4x         664205893   5002  80    100644  177       `
.subckt nor2_4x out in1 in2
xj1 Vcc out out jd_4x
xj2 out in1 0 je_4x
xj3 out in2 0 je_4x
xcin1  in1 0 ce_4x
xcin2  in2 0 ce_4x
xcoutd out 0 cd_4x
xcoute out 0 ce_4x M=2
.ends


nor2_6x         664205893   5002  80    100644  177       `
.subckt nor2_6x out in1 in2
xj1 Vcc out out jd_6x
xj2 out in1 0 je_6x
xj3 out in2 0 je_6x
xcin1  in1 0 ce_6x
xcin2  in2 0 ce_6x
xcoutd out 0 cd_6x
xcoute out 0 ce_6x M=2
.ends


nor2_8x         664205893   5002  80    100644  177       `
.subckt nor2_8x out in1 in2
xj1 Vcc out out jd_8x
xj2 out in1 0 je_8x
xj3 out in2 0 je_8x
xcin1  in1 0 ce_8x
xcin2  in2 0 ce_8x
xcoutd out 0 cd_8x
xcoute out 0 ce_8x M=2
.ends


nor2_p5x        664205892   5002  80    100644  185       `
.subckt nor2_p5x out in1 in2
xj1 Vcc out out jd_p5x
xj2 out in1 0 je_p5x
xj3 out in2 0 je_p5x
xcin1  in1 0 ce_p5x
xcin2  in2 0 ce_p5x
xcoutd out 0 cd_p5x
xcoute out 0 ce_p5x M=2
.ends


nor2_p7x        664205892   5002  80    100644  185       `
.subckt nor2_p7x out in1 in2
xj1 Vcc out out jd_p7x
xj2 out in1 0 je_p7x
xj3 out in2 0 je_p7x
xcin1  in1 0 ce_p7x
xcin2  in2 0 ce_p7x
xcoutd out 0 cd_p7x
xcoute out 0 ce_p7x M=2
.ends


nor2_sb_1p3x4x  664205903   5002  80    100644  219       `
.subckt nor2_sb_1p3x4x out in1 in2
xsb out in1 n1 sb_1p3x4x_core 
* small devices
xj1 1 in2 0 je_1p3x
xcj1g in2 0 ce_1p3x
xcj1d 1 0 ce_1p3x
* large devices
xj2 out in2 0 je_4x
xcj2g in2 0 ce_4x
xcj2d out 0 ce_4x
.ends


nor2_sb_1x2x    664205900   5002  80    100644  209       `
.subckt nor2_sb_1x2x out in1 in2
xsb out in1 n1 sb_1x2x_core 
* small devices
xj1 1 in2 0 je_1x
xcj1g in2 0 ce_1x
xcj1d 1 0 ce_1x
* large devices
xj2 out in2 0 je_2x
xcj2g in2 0 ce_2x
xcj2d out 0 ce_2x
.ends


nor2_sb_1x3x    664205900   5002  80    100644  208       `
.subckt nor2_sb_1x3x out in1 in2
xsb out in1 n1 sb_1x3x_core
* small devices
xj1 1 in2 0 je_1x
xcj1g in2 0 ce_1x
xcj1d 1 0 ce_1x
* large devices
xj2 out in2 0 je_3x
xcj2g in2 0 ce_3x
xcj2d out 0 ce_3x
.ends

nor2_sb_2x4x    664205904   5002  80    100644  208       `
.subckt nor2_sb_2x4x out in1 in2
xsb out in1 n1 sb_2x4x_core
* small devices
xj1 1 in2 0 je_2x
xcj1g in2 0 ce_2x
xcj1d 1 0 ce_2x
* large devices
xj2 out in2 0 je_4x
xcj2g in2 0 ce_4x
xcj2d out 0 ce_4x
.ends

nor2_sb_2x6x    664205904   5002  80    100644  209       `
.subckt nor2_sb_2x6x out in1 in2
xsb out in1 n1 sb_2x6x_core 
* small devices
xj1 1 in2 0 je_2x
xcj1g in2 0 ce_2x
xcj1d 1 0 ce_2x
* large devices
xj2 out in2 0 je_6x