Mon Dec 17 11:46:53 EST 1990
 sun      hostid 2100046b         reading file 
/usr/project/vlsi/h9001/permit.hsp
 reading install configuration file: /usr/project/vlsi/h9001/meta.cfg
******    h s p i c e      9001b           11:46:53  17-dec90   sun           
*** model test for subthreshold characterisitics ***                          
****** copyright 1990 meta-software,inc. *****site:duke_u                     
******  input listing                    evaluation expires 911130            
******
.model mfet1 njf
+ vto=0.0 beta=1 gamds=0.0 is=0 pb=0.8 vbi=1.50
+ vgexp=2.0 alpha=10 ucrit=0.0 lambda=0.0 satexp=3.0
+ ng=0.0 nd=0.0 d=10.9 a=0.0u level=3 capop=1 sat=3
+ k1=0.0
 
.model mfet2 njf
+ vto=0.0 beta=1 gamds=0.0 is=0 pb=0.8 vbi=1.50
+ vgexp=2.0 alpha=10 ucrit=0.0 lambda=0.0 satexp=3.0
+ ng=0.0 nd=0.0 d=10.9 a=0.0u level=3 capop=1 sat=3
+ k1=0.2
 
.model mfet3 njf
+ vto=0.0 beta=1 gamds=0.0 is=0 pb=0.8 vbi=1.50
+ vgexp=2.0 alpha=10 ucrit=0.0 lambda=0.0 satexp=3.0
+ ng=0.0 nd=0.0 d=10.9 a=0.0u level=3 capop=1 sat=3
+ k1=0.4
 
.model mfet4 njf
+ vto=0.0 beta=1 gamds=0.0 is=0 pb=0.8 vbi=1.50
+ vgexp=2.0 alpha=10 ucrit=0.0 lambda=0.0 satexp=3.0
+ ng=0.0 nd=0.0 d=10.9 a=0.0u level=3 capop=1 sat=3
+ k1=0.6
 
.model mfet5 njf
+ vto=0.0 beta=1 gamds=0.0 is=0 pb=0.8 vbi=1.50
+ vgexp=2.0 alpha=10 ucrit=0.0 lambda=0.0 satexp=3.0
+ ng=0.0 nd=0.0 d=10.9 a=0.0u level=3 capop=1 sat=3
+ k1=0.8
 
.model mfet6 njf
+ vto=0.0 beta=1 gamds=0.0 is=0 pb=0.8 vbi=1.50
+ vgexp=2.0 alpha=10 ucrit=0.0 lambda=0.0 satexp=3.0
+ ng=0.0 nd=0.0 d=10.9 a=0.0u level=3 capop=1 sat=3
+ k1=1.0
 
j01 d01 g s b mfet1
j02 d02 g s b mfet2
j03 d03 g s b mfet3
j04 d04 g s b mfet4
j05 d05 g s b mfet5
j06 d06 g s b mfet6
 
vd01   d01     0       2.0
vd02   d02     0       2.0
vd03   d03     0       2.0
vd04   d04     0       2.0
vd05   d05     0       2.0
vd06   d06     0       2.0
vg     g       0       0.5
vs     s       0       0.0
vb     b       0       0.0
 
.dc vb -2.0 2.0 0.05
.print dc i(vd01) i(vd02) i(vd03) i(vd04) i(vd05) i(vd06)
.options ingold=2 co=132
.end
 ******    h s p i c e      9001b           11:46:53  17-dec90   sun           
*** model test for subthreshold characterisitics ***                          
****** copyright 1990 meta-software,inc. *****site:duke_u                     
******  jfet   model parameters          tnom=  25.000 temp=  25.000          
******

***************************************************************************
***  common model parameters  model name:   0:mfet1    model type:njf   ***
***************************************************************************

    names  values   units     names  values   units     names  values   units     names  values   units     names  values   units
    -----  ------   -----     -----  ------   -----     -----  ------   -----     -----  ------   -----     -----  ------   -----

  1*** basic ids parameters ***
     vto=   0.    volts     lambda=   0.    /v          beta=   1.00 amp/v**2        l=   0.    meters      ldel=   0.    meters 
       w=   0.    meters      wdel=   0.    meters      hdif=   0.    meters      ldif=   0.    meters     align=   0.    meters 
      ni=  14.50g 1/cm**3     area=   1.00                nd=   0.    /v            ng=   0.    /v     

  2*** gate diode dc parameters ***
      is=   0.    amps           n=   1.00         

  3*** capacitance parameters ***
     cgd=   0.    farad        cgs=   0.    farad       gcap=   0.   f/m**2       crat= 666.00m               fc= 500.00m        
       m= 500.00m               pb= 800.00m volts         tt=   0.    secs   

  4*** parasitic resistance parameters ***
      rd=   0.    ohms          rg=   0.    ohms          rs=   0.    ohms         rsh=   0.   ohm/sq        rshl   0.   ohm/sq  

  5*** temperature effect parameters ***
    telv=   0.               telvc=   0.                 tcv=   0.    v/deg k      trd=   0.    /deg         trg=   0.    /deg   
     trs=   0.    /deg         ctd=   0.    /deg         cts=   0.    /deg         tpb=   0.    /deg          eg=   1.11  ev     
    gap1= 702.00u ev/deg      gap2=   1.11k deg          xti=   0.                tref=  25.00   deg c 

  6*** noise parameters ***
      kf=   0.                  af=   1.00         

  ***  level   3  model parameters  ***

   level=   3.00                 a=   0.    meters     alpha=  10.00                 d=  10.90             gamds=   0.           
   nchan= 1.5e+22 #/cm**3      sat=   3.00               vbi=   1.50  volts         vp=   0.    volts      vgexp=   2.00         
  satexp=   3.00                k1=   0.           
 

***************************************************************************
***  common model parameters  model name:   0:mfet2    model type:njf   ***
***************************************************************************

    names  values   units     names  values   units     names  values   units     names  values   units     names  values   units
    -----  ------   -----     -----  ------   -----     -----  ------   -----     -----  ------   -----     -----  ------   -----

  1*** basic ids parameters ***
     vto=   0.    volts     lambda=   0.    /v          beta=   1.00 amp/v**2        l=   0.    meters      ldel=   0.    meters 
       w=   0.    meters      wdel=   0.    meters      hdif=   0.    meters      ldif=   0.    meters     align=   0.    meters 
      ni=  14.50g 1/cm**3     area=   1.00                nd=   0.    /v            ng=   0.    /v     

  2*** gate diode dc parameters ***
      is=   0.    amps           n=   1.00         

  3*** capacitance parameters ***
     cgd=   0.    farad        cgs=   0.    farad       gcap=   0.   f/m**2       crat= 666.00m               fc= 500.00m        
       m= 500.00m               pb= 800.00m volts         tt=   0.    secs   

  4*** parasitic resistance parameters ***
      rd=   0.    ohms          rg=   0.    ohms          rs=   0.    ohms         rsh=   0.   ohm/sq        rshl   0.   ohm/sq  

  5*** temperature effect parameters ***
    telv=   0.               telvc=   0.                 tcv=   0.    v/deg k      trd=   0.    /deg         trg=   0.    /deg   
     trs=   0.    /deg         ctd=   0.    /deg         cts=   0.    /deg         tpb=   0.    /deg          eg=   1.11  ev     
    gap1= 702.00u ev/deg      gap2=   1.11k deg          xti=   0.                tref=  25.00   deg c 

  6*** noise parameters ***
      kf=   0.                  af=   1.00         

  ***  level   3  model parameters  ***

   level=   3.00                 a=   0.    meters     alpha=  10.00                 d=  10.90             gamds=   0.           
   nchan= 1.5e+22 #/cm**3      sat=   3.00               vbi=   1.50  volts         vp=   0.    volts      vgexp=   2.00         
  satexp=   3.00                k1= 200.00m        
 

***************************************************************************
***  common model parameters  model name:   0:mfet3    model type:njf   ***
***************************************************************************

    names  values   units     names  values   units     names  values   units     names  values   units     names  values   units
    -----  ------   -----     -----  ------   -----     -----  ------   -----     -----  ------   -----     -----  ------   -----

  1*** basic ids parameters ***
     vto=   0.    volts     lambda=   0.    /v          beta=   1.00 amp/v**2        l=   0.    meters      ldel=   0.    meters 
       w=   0.    meters      wdel=   0.    meters      hdif=   0.    meters      ldif=   0.    meters     align=   0.    meters 
      ni=  14.50g 1/cm**3     area=   1.00                nd=   0.    /v            ng=   0.    /v     

  2*** gate diode dc parameters ***
      is=   0.    amps           n=   1.00         

  3*** capacitance parameters ***
     cgd=   0.    farad        cgs=   0.    farad       gcap=   0.   f/m**2       crat= 666.00m               fc= 500.00m        
       m= 500.00m               pb= 800.00m volts         tt=   0.    secs   

  4*** parasitic resistance parameters ***
      rd=   0.    ohms          rg=   0.    ohms          rs=   0.    ohms         rsh=   0.   ohm/sq        rshl   0.   ohm/sq  

  5*** temperature effect parameters ***
    telv=   0.               telvc=   0.                 tcv=   0.    v/deg k      trd=   0.    /deg         trg=   0.    /deg   
     trs=   0.    /deg         ctd=   0.    /deg         cts=   0.    /deg         tpb=   0.    /deg          eg=   1.11  ev     
    gap1= 702.00u ev/deg      gap2=   1.11k deg          xti=   0.                tref=  25.00   deg c 

  6*** noise parameters ***
      kf=   0.                  af=   1.00         

  ***  level   3  model parameters  ***

   level=   3.00                 a=   0.    meters     alpha=  10.00                 d=  10.90             gamds=   0.           
   nchan= 1.5e+22 #/cm**3      sat=   3.00               vbi=   1.50  volts         vp=   0.    volts      vgexp=   2.00         
  satexp=   3.00                k1= 400.00m        
 

***************************************************************************
***  common model parameters  model name:   0:mfet4    model type:njf   ***
***************************************************************************

    names  values   units     names  values   units     names  values   units     names  values   units     names  values   units
    -----  ------   -----     -----  ------   -----     -----  ------   -----     -----  ------   -----     -----  ------   -----

  1*** basic ids parameters ***
     vto=   0.    volts     lambda=   0.    /v          beta=   1.00 amp/v**2        l=   0.    meters      ldel=   0.    meters 
       w=   0.    meters      wdel=   0.    meters      hdif=   0.    meters      ldif=   0.    meters     align=   0.    meters 
      ni=  14.50g 1/cm**3     area=   1.00                nd=   0.    /v            ng=   0.    /v     

  2*** gate diode dc parameters ***
      is=   0.    amps           n=   1.00         

  3*** capacitance parameters ***
     cgd=   0.    farad        cgs=   0.    farad       gcap=   0.   f/m**2       crat= 666.00m               fc= 500.00m        
       m= 500.00m               pb= 800.00m volts         tt=   0.    secs   

  4*** parasitic resistance parameters ***
      rd=   0.    ohms          rg=   0.    ohms          rs=   0.    ohms         rsh=   0.   ohm/sq        rshl   0.   ohm/sq  

  5*** temperature effect parameters ***
    telv=   0.               telvc=   0.                 tcv=   0.    v/deg k      trd=   0.    /deg         trg=   0.    /deg   
     trs=   0.    /deg         ctd=   0.    /deg         cts=   0.    /deg         tpb=   0.    /deg          eg=   1.11  ev     
    gap1= 702.00u ev/deg      gap2=   1.11k deg          xti=   0.                tref=  25.00   deg c 

  6*** noise parameters ***
      kf=   0.                  af=   1.00         

  ***  level   3  model parameters  ***

   level=   3.00                 a=   0.    meters     alpha=  10.00                 d=  10.90             gamds=   0.           
   nchan= 1.5e+22 #/cm**3      sat=   3.00               vbi=   1.50  volts         vp=   0.    volts      vgexp=   2.00         
  satexp=   3.00                k1= 600.00m        
 

***************************************************************************
***  common model parameters  model name:   0:mfet5    model type:njf   ***
***************************************************************************

    names  values   units     names  values   units     names  values   units     names  values   units     names  values   units
    -----  ------   -----     -----  ------   -----     -----  ------   -----     -----  ------   -----     -----  ------   -----

  1*** basic ids parameters ***
     vto=   0.    volts     lambda=   0.    /v          beta=   1.00 amp/v**2        l=   0.    meters      ldel=   0.    meters 
       w=   0.    meters      wdel=   0.    meters      hdif=   0.    meters      ldif=   0.    meters     align=   0.    meters 
      ni=  14.50g 1/cm**3     area=   1.00                nd=   0.    /v            ng=   0.    /v     

  2*** gate diode dc parameters ***
      is=   0.    amps           n=   1.00         

  3*** capacitance parameters ***
     cgd=   0.    farad        cgs=   0.    farad       gcap=   0.   f/m**2       crat= 666.00m               fc= 500.00m        
       m= 500.00m               pb= 800.00m volts         tt=   0.    secs   

  4*** parasitic resistance parameters ***
      rd=   0.    ohms          rg=   0.    ohms          rs=   0.    ohms         rsh=   0.   ohm/sq        rshl   0.   ohm/sq  

  5*** temperature effect parameters ***
    telv=   0.               telvc=   0.                 tcv=   0.    v/deg k      trd=   0.    /deg         trg=   0.    /deg   
     trs=   0.    /deg         ctd=   0.    /deg         cts=   0.    /deg         tpb=   0.    /deg          eg=   1.11  ev     
    gap1= 702.00u ev/deg      gap2=   1.11k deg          xti=   0.                tref=  25.00   deg c 

  6*** noise parameters ***
      kf=   0.                  af=   1.00         

  ***  level   3  model parameters  ***

   level=   3.00                 a=   0.    meters     alpha=  10.00                 d=  10.90             gamds=   0.           
   nchan= 1.5e+22 #/cm**3      sat=   3.00               vbi=   1.50  volts         vp=   0.    volts      vgexp=   2.00         
  satexp=   3.00                k1= 800.00m        
 

***************************************************************************
***  common model parameters  model name:   0:mfet6    model type:njf   ***
***************************************************************************

    names  values   units     names  values   units     names  values   units     names  values   units     names  values   units
    -----  ------   -----     -----  ------   -----     -----  ------   -----     -----  ------   -----     -----  ------   -----

  1*** basic ids parameters ***
     vto=   0.    volts     lambda=   0.    /v          beta=   1.00 amp/v**2        l=   0.    meters      ldel=   0.    meters 
       w=   0.    meters      wdel=   0.    meters      hdif=   0.    meters      ldif=   0.    meters     align=   0.    meters 
      ni=  14.50g 1/cm**3     area=   1.00                nd=   0.    /v            ng=   0.    /v     

  2*** gate diode dc parameters ***
      is=   0.    amps           n=   1.00         

  3*** capacitance parameters ***
     cgd=   0.    farad        cgs=   0.    farad       gcap=   0.   f/m**2       crat= 666.00m               fc= 500.00m        
       m= 500.00m               pb= 800.00m volts         tt=   0.    secs   

  4*** parasitic resistance parameters ***
      rd=   0.    ohms          rg=   0.    ohms          rs=   0.    ohms         rsh=   0.   ohm/sq        rshl   0.   ohm/sq  

  5*** temperature effect parameters ***
    telv=   0.               telvc=   0.                 tcv=   0.    v/deg k      trd=   0.    /deg         trg=   0.    /deg   
     trs=   0.    /deg         ctd=   0.    /deg         cts=   0.    /deg         tpb=   0.    /deg          eg=   1.11  ev     
    gap1= 702.00u ev/deg      gap2=   1.11k deg          xti=   0.                tref=  25.00   deg c 

  6*** noise parameters ***
      kf=   0.                  af=   1.00         

  ***  level   3  model parameters  ***

   level=   3.00                 a=   0.    meters     alpha=  10.00                 d=  10.90             gamds=   0.           
   nchan= 1.5e+22 #/cm**3      sat=   3.00               vbi=   1.50  volts         vp=   0.    volts      vgexp=   2.00         
  satexp=   3.00                k1=   1.00         
 

**warning**: the following singular supplies were terminated to 1 meg resistor 
  supply       node1            node2
 vb                      0:b                     0:0               
 ******    h s p i c e      9001b           11:46:53  17-dec90   sun           
*** model test for subthreshold characterisitics ***                          
****** copyright 1990 meta-software,inc. *****site:duke_u                     
******  dc transfer curves               tnom=  25.000 temp=  25.000          
******

       volt    current      current      current      current      current      current    
                  vd01         vd02         vd03         vd04         vd05         vd06    
-2.0000e+00   -2.500e-01   -1.375e-01   -5.835e-02   -1.262e-02   -3.500e-12   -3.500e-12  
-1.9500e+00   -2.500e-01   -1.395e-01   -6.097e-02   -1.450e-02   -3.500e-12   -3.500e-12  
-1.9000e+00   -2.500e-01   -1.415e-01   -6.367e-02   -1.651e-02   -2.180e-05   -3.500e-12  
-1.8500e+00   -2.500e-01   -1.436e-01   -6.645e-02   -1.868e-02   -2.420e-04   -3.500e-12  
-1.8000e+00   -2.500e-01   -1.456e-01   -6.931e-02   -2.099e-02   -7.035e-04   -3.500e-12  
-1.7500e+00   -2.500e-01   -1.478e-01   -7.225e-02   -2.346e-02   -1.412e-03   -3.500e-12  
-1.7000e+00   -2.500e-01   -1.499e-01   -7.527e-02   -2.609e-02   -2.373e-03   -3.500e-12  
-1.6500e+00   -2.500e-01   -1.521e-01   -7.838e-02   -2.888e-02   -3.592e-03   -3.500e-12  
-1.6000e+00   -2.500e-01   -1.543e-01   -8.158e-02   -3.184e-02   -5.077e-03   -3.500e-12  
-1.5500e+00   -2.500e-01   -1.565e-01   -8.487e-02   -3.497e-02   -6.832e-03   -3.500e-12  
-1.5000e+00   -2.500e-01   -1.588e-01   -8.826e-02   -3.827e-02   -8.865e-03   -3.500e-12  
-1.4500e+00   -2.500e-01   -1.612e-01   -9.173e-02   -4.174e-02   -1.118e-02   -5.167e-05  
-1.4000e+00   -2.500e-01   -1.635e-01   -9.531e-02   -4.540e-02   -1.379e-02   -4.755e-04  
-1.3500e+00   -2.500e-01   -1.659e-01   -9.899e-02   -4.925e-02   -1.670e-02   -1.336e-03  
-1.3000e+00   -2.500e-01   -1.683e-01   -1.028e-01   -5.329e-02   -1.992e-02   -2.645e-03  
-1.2500e+00   -2.500e-01   -1.708e-01   -1.066e-01   -5.753e-02   -2.345e-02   -4.413e-03  
-1.2000e+00   -2.500e-01   -1.733e-01   -1.106e-01   -6.197e-02   -2.731e-02   -6.655e-03  
-1.1500e+00   -2.500e-01   -1.759e-01   -1.147e-01   -6.662e-02   -3.150e-02   -9.382e-03  
-1.1000e+00   -2.500e-01   -1.785e-01   -1.190e-01   -7.149e-02   -3.604e-02   -1.261e-02  
-1.0500e+00   -2.500e-01   -1.811e-01   -1.233e-01   -7.658e-02   -4.092e-02   -1.635e-02  
-1.0000e+00   -2.500e-01   -1.838e-01   -1.278e-01   -8.189e-02   -4.618e-02   -2.062e-02  
-9.5000e-01   -2.500e-01   -1.865e-01   -1.323e-01   -8.744e-02   -5.180e-02   -2.544e-02  
-9.0000e-01   -2.500e-01   -1.893e-01   -1.371e-01   -9.323e-02   -5.781e-02   -3.082e-02  
-8.5000e-01   -2.500e-01   -1.922e-01   -1.419e-01   -9.927e-02   -6.422e-02   -3.678e-02  
-8.0000e-01   -2.500e-01   -1.950e-01   -1.469e-01   -1.056e-01   -7.104e-02   -4.333e-02  
-7.5000e-01   -2.500e-01   -1.980e-01   -1.520e-01   -1.121e-01   -7.829e-02   -5.051e-02  
-7.0000e-01   -2.500e-01   -2.010e-01   -1.573e-01   -1.190e-01   -8.597e-02   -5.832e-02  
-6.5000e-01   -2.500e-01   -2.040e-01   -1.627e-01   -1.261e-01   -9.411e-02   -6.680e-02  
-6.0000e-01   -2.500e-01   -2.071e-01   -1.683e-01   -1.335e-01   -1.027e-01   -7.596e-02  
-5.5000e-01   -2.500e-01   -2.103e-01   -1.740e-01   -1.412e-01   -1.118e-01   -8.583e-02  
-5.0000e-01   -2.500e-01   -2.135e-01   -1.800e-01   -1.492e-01   -1.214e-01   -9.643e-02  
-4.5000e-01   -2.500e-01   -2.168e-01   -1.860e-01   -1.576e-01   -1.315e-01   -1.078e-01  
-4.0000e-01   -2.500e-01   -2.202e-01   -1.923e-01   -1.663e-01   -1.422e-01   -1.200e-01  
-3.5000e-01   -2.500e-01   -2.237e-01   -1.988e-01   -1.754e-01   -1.534e-01   -1.329e-01  
-3.0000e-01   -2.500e-01   -2.272e-01   -2.054e-01   -1.848e-01   -1.652e-01   -1.468e-01  
-2.5000e-01   -2.500e-01   -2.308e-01   -2.123e-01   -1.946e-01   -1.777e-01   -1.615e-01  
-2.0000e-01   -2.500e-01   -2.344e-01   -2.194e-01   -2.048e-01   -1.907e-01   -1.772e-01  
-1.5000e-01   -2.500e-01   -2.382e-01   -2.267e-01   -2.154e-01   -2.045e-01   -1.938e-01  
-1.0000e-01   -2.500e-01   -2.420e-01   -2.342e-01   -2.265e-01   -2.189e-01   -2.114e-01  
-5.0000e-02   -2.500e-01   -2.460e-01   -2.420e-01   -2.380e-01   -2.341e-01   -2.302e-01  
   0.         -2.500e-01   -2.500e-01   -2.500e-01   -2.500e-01   -2.500e-01   -2.500e-01  
 5.0000e-02   -2.500e-01   -2.541e-01   -2.582e-01   -2.623e-01   -2.665e-01   -2.707e-01  
 1.0000e-01   -2.500e-01   -2.581e-01   -2.663e-01   -2.747e-01   -2.832e-01   -2.918e-01  
 1.5000e-01   -2.500e-01   -2.621e-01   -2.745e-01   -2.872e-01   -3.001e-01   -3.134e-01  
 2.0000e-01   -2.500e-01   -2.661e-01   -2.826e-01   -2.997e-01   -3.173e-01   -3.354e-01  
 2.5000e-01   -2.500e-01   -2.700e-01   -2.908e-01   -3.123e-01   -3.347e-01   -3.578e-01  
 3.0000e-01   -2.500e-01   -2.739e-01   -2.989e-01   -3.251e-01   -3.523e-01   -3.806e-01  
 3.5000e-01   -2.500e-01   -2.778e-01   -3.071e-01   -3.378e-01   -3.701e-01   -4.037e-01  
 4.0000e-01   -2.500e-01   -2.817e-01   -3.152e-01   -3.507e-01   -3.880e-01   -4.273e-01  
 4.5000e-01   -2.500e-01   -2.855e-01   -3.234e-01   -3.636e-01   -4.062e-01   -4.512e-01  
 5.0000e-01   -2.500e-01   -2.893e-01   -3.315e-01   -3.766e-01   -4.245e-01   -4.754e-01  
 5.5000e-01   -2.500e-01   -2.931e-01   -3.397e-01   -3.897e-01   -4.431e-01   -4.999e-01  
 6.0000e-01   -2.500e-01   -2.969e-01   -3.478e-01   -4.028e-01   -4.617e-01   -5.247e-01  
 6.5000e-01   -2.500e-01   -3.006e-01   -3.560e-01   -4.159e-01   -4.806e-01   -5.499e-01  
 7.0000e-01   -2.500e-01   -3.044e-01   -3.641e-01   -4.292e-01   -4.996e-01   -5.753e-01  
 7.5000e-01   -2.500e-01   -3.081e-01   -3.722e-01   -4.424e-01   -5.187e-01   -6.010e-01  
 8.0000e-01   -2.500e-01   -3.118e-01   -3.804e-01   -4.558e-01   -5.380e-01   -6.270e-01  
 8.5000e-01   -2.500e-01   -3.154e-01   -3.885e-01   -4.691e-01   -5.574e-01   -6.532e-01  
 9.0000e-01   -2.500e-01   -3.191e-01   -3.966e-01   -4.826e-01   -5.769e-01   -6.797e-01  
 9.5000e-01   -2.500e-01   -3.227e-01   -4.048e-01   -4.960e-01   -5.966e-01   -7.064e-01  
 1.0000e+00   -2.500e-01   -3.264e-01   -4.129e-01   -5.096e-01   -6.164e-01   -7.334e-01  
 1.0500e+00   -2.500e-01   -3.300e-01   -4.210e-01   -5.231e-01   -6.363e-01   -7.606e-01  
 1.1000e+00   -2.500e-01   -3.336e-01   -4.291e-01   -5.367e-01   -6.564e-01   -7.880e-01  
 1.1500e+00   -2.500e-01   -3.371e-01   -4.373e-01   -5.504e-01   -6.765e-01   -8.157e-01  
 1.2000e+00   -2.500e-01   -3.407e-01   -4.454e-01   -5.641e-01   -6.968e-01   -8.435e-01  
 1.2500e+00   -2.500e-01   -3.442e-01   -4.535e-01   -5.778e-01   -7.172e-01   -8.715e-01  
 1.3000e+00   -2.500e-01   -3.478e-01   -4.616e-01   -5.916e-01   -7.376e-01   -8.998e-01  
 1.3500e+00   -2.500e-01   -3.513e-01   -4.697e-01   -6.054e-01   -7.582e-01   -9.282e-01  
 1.4000e+00   -2.500e-01   -3.548e-01   -4.779e-01   -6.192e-01   -7.789e-01   -9.569e-01  
 1.4500e+00   -2.500e-01   -3.583e-01   -4.860e-01   -6.331e-01   -7.997e-01   -9.857e-01  
 1.5000e+00   -2.500e-01   -3.618e-01   -4.941e-01   -6.470e-01   -8.206e-01   -1.014e+00  
 1.5500e+00   -2.500e-01   -3.652e-01   -5.022e-01   -6.610e-01   -8.415e-01   -1.043e+00  
 1.6000e+00   -2.500e-01   -3.687e-01   -5.103e-01   -6.750e-01   -8.626e-01   -1.073e+00  
 1.6500e+00   -2.500e-01   -3.721e-01   -5.184e-01   -6.890e-01   -8.837e-01   -1.102e+00  
 1.7000e+00   -2.500e-01   -3.756e-01   -5.266e-01   -7.030e-01   -9.049e-01   -1.132e+00  
 1.7500e+00   -2.500e-01   -3.790e-01   -5.347e-01   -7.171e-01   -9.263e-01   -1.162e+00  
 1.8000e+00   -2.500e-01   -3.824e-01   -5.428e-01   -7.312e-01   -9.477e-01   -1.192e+00  
 1.8500e+00   -2.500e-01   -3.858e-01   -5.509e-01   -7.453e-01   -9.691e-01   -1.222e+00  
 1.9000e+00   -2.500e-01   -3.892e-01   -5.590e-01   -7.595e-01   -9.907e-01   -1.252e+00  
 1.9500e+00   -2.500e-01   -3.925e-01   -5.671e-01   -7.737e-01   -1.012e+00   -1.282e+00  
 2.0000e+00   -2.500e-01   -3.959e-01   -5.752e-01   -7.879e-01   -1.034e+00   -1.313e+00  


         ***** job concluded
 ******    h s p i c e      9001b           11:46:53  17-dec90   sun           
*** model test for subthreshold characterisitics ***                          
****** copyright 1990 meta-software,inc. *****site:duke_u                     
******  job statistics summary           tnom=  25.000 temp=  25.000          
******
          total cpu time          8.18 seconds
              job started at  11:46:53  17-dec90
              job ended   at  11:47: 2  17-dec90


Mon Dec 17 11:47:03 EST 1990
I am done with mes.sp
