Thu Dec 13 14:35:27 EST 1990	Thu Dec 13 14:36:01 EST 1990
  hspice syntax is hspice inputfile >outfile 	  hspice syntax is hspice inputfile >outfile 
 sun      hostid 2100046b         reading file 	 sun      hostid 2100046b         reading file 
/usr/project/vlsi/h9001/permit.hsp	/usr/project/vlsi/h9001/permit.hsp
 reading install configuration file: /usr/project/vlsi/h9001/meta.cfg	 reading install configuration file: /usr/project/vlsi/h9001/meta.cfg
******    h s p i c e      9001b           14:35:27  13-dec90   sun           	******    h s p i c e      9001b           14:36: 1  13-dec90   sun           
test cases for mesfet model validation                                        	test cases for mesfet model validation                                        
****** copyright 1990 meta-software,inc. *****site:duke_u                     	****** copyright 1990 meta-software,inc. *****site:duke_u                     
******  input listing                    evaluation expires 911130            	******  input listing                    evaluation expires 911130            
******	******
.model mes15 njf level=2	.model mes15 njf level=2
+ vto=-0.479 beta=2.72e-04 is=3.88e-14 alpha=3.94 lambda=0.127 rs=0 rd=0	+ vto=-0.479 beta=2.72e-04 is=3.88e-14 alpha=3.94 lambda=0.127 rs=0 rd=0
+ pb=0.8	+ pb=0.8
.model mes16 njf level=2	.model mes16 njf level=2
+ vto=-0.896 beta=3.08e-04 is=7.66e-14 alpha=3.91 lambda=0.037 rs=0 rd=0	+ vto=-0.896 beta=3.08e-04 is=7.66e-14 alpha=3.91 lambda=0.037 rs=0 rd=0
+ pb=0.8	+ pb=0.8
.model mes19 njf level=2	.model mes19 njf level=2
+ vto=-0.819 beta=2.83e-04 is=1.10e-13 alpha=3.51 lambda=0.083 rs=0 rd=0	+ vto=-0.819 beta=2.83e-04 is=1.10e-13 alpha=3.51 lambda=0.083 rs=0 rd=0
+ pb=0.8	+ pb=0.8
.model mes20 njf level=2	.model mes20 njf level=2
+ vto=-0.798 beta=3.14e-04 is=3.88e-14 alpha=3.94 lambda=0.127 rs=0 rd=0	+ vto=-0.798 beta=3.14e-04 is=3.88e-14 alpha=3.94 lambda=0.127 rs=0 rd=0
+ pb=0.8	+ pb=0.8
.model mes04 njf level=2	.model mes04 njf level=2
+ vto=0.267 beta=3.56e-04 is=1.02e-14 alpha=6.53 lambda=0.072 rs=0 rd=0	+ vto=0.267 beta=3.56e-04 is=1.02e-14 alpha=6.53 lambda=0.072 rs=0 rd=0
+ pb=0.8	+ pb=0.8
.model mes10 njf level=2	.model mes10 njf level=2
+ vto=0.276 beta=3.78e-04 is=1.10e-14 alpha=6.28 lambda=0.091 rs=0 rd=0	+ vto=0.276 beta=3.78e-04 is=1.10e-14 alpha=6.28 lambda=0.091 rs=0 rd=0
+ pb=0.8	+ pb=0.8
.model nmes njf	.model nmes njf
+ vto=-0.1 rs=100 rd=200 pb=0.7	+ vto=-0.1 rs=100 rd=200 pb=0.7
+ alpha=2.0 cgs=500.0f cgd=100.0f	+ alpha=2.0 cgs=500.0f cgd=100.0f
.model mfet15 njf	.model mfet15 njf
+ vto=-0.460 beta=2.72e-04 rsh=765 gamds=-0.006 is=3.88e-2 n=1.210 ldel=-0.385u	+ vto=-0.460 beta=2.72e-04 rsh=765 gamds=-0.006 is=3.88e-2 n=1.210 ldel=-0.385u
+ vgexp=2.55 alpha=3.94 ucrit=0.051 lambda=0.127 satexp=3.68	+ vgexp=2.55 alpha=3.94 ucrit=0.051 lambda=0.127 satexp=3.68
+ ng=0.595 nd=0.100 k1=0.204 eg=876e-03 gap1=1e-06 gap2=10 d=13.1	+ ng=0.595 nd=0.100 k1=0.204 eg=876e-03 gap1=1e-06 gap2=10 d=13.1
+ gcap=1.495e-03 crat=.1109	+ gcap=1.495e-03 crat=.1109
+ level=3 capop=1 sat=3	+ level=3 capop=1 sat=3
+ acm=1 hdif=2.615u rshl=0 rs=0 rd=0 xti=2 tlev=2	+ acm=1 hdif=2.615u rshl=0 rs=0 rd=0 xti=2 tlev=2
+ trs=2.24e-03 trd=2.24e-03 bex=481e-03 tcv=290e-06	+ trs=2.24e-03 trd=2.24e-03 bex=481e-03 tcv=290e-06
.model mfet16 njf	.model mfet16 njf
+ vto=-0.871 beta=2.65e-04 rsh=1315 gamds=-0.075 is=7.66e-2 n=1.373 ldel=-0.385	+ vto=-0.871 beta=2.65e-04 rsh=1315 gamds=-0.075 is=7.66e-2 n=1.373 ldel=-0.385
u	u
+ vgexp=2.04 alpha=3.91 ucrit=0.88 lambda=0.037 satexp=2.58	+ vgexp=2.04 alpha=3.91 ucrit=0.88 lambda=0.037 satexp=2.58
+ ng=0.892 nd=0.100 k1=0.295 eg=865e-03 gap1=1e-06 gap2=10 d=13.1	+ ng=0.892 nd=0.100 k1=0.295 eg=865e-03 gap1=1e-06 gap2=10 d=13.1
+ gcap=1.495e-03 crat=.1109	+ gcap=1.495e-03 crat=.1109
+ level=3 capop=1 sat=3	+ level=3 capop=1 sat=3
+ acm=1 hdif=0.815u rshl=0 rs=0 rd=0 xti=2 tlev=2	+ acm=1 hdif=0.815u rshl=0 rs=0 rd=0 xti=2 tlev=2
+ trs=548e-06 trd=548e-06 bex=-249e-03 tcv=599e-06	+ trs=548e-06 trd=548e-06 bex=-249e-03 tcv=599e-06
.model mfet19 njf	.model mfet19 njf
+ vto=-0.798 beta=2.43e-04 rsh=850 gamds=-0.041 is=1.10e-1 n=1.315 ldel=-0.385u	+ vto=-0.798 beta=2.43e-04 rsh=850 gamds=-0.041 is=1.10e-1 n=1.315 ldel=-0.385u
+ vgexp=2.15 alpha=3.51 ucrit=0.176 lambda=0.083 satexp=2.92	+ vgexp=2.15 alpha=3.51 ucrit=0.176 lambda=0.083 satexp=2.92
+ ng=0.797 nd=0.100 k1=0.288 eg=845e-03 gap1=27e-06 gap2=210 d=13.1	+ ng=0.797 nd=0.100 k1=0.288 eg=845e-03 gap1=27e-06 gap2=210 d=13.1
+ gcap=1.495e-03 crat=.1109	+ gcap=1.495e-03 crat=.1109
+ level=3 capop=1 sat=3	+ level=3 capop=1 sat=3
+ acm=1 hdif=1.615u rshl=0 rs=0 rd=0 xti=2 tlev=2	+ acm=1 hdif=1.615u rshl=0 rs=0 rd=0 xti=2 tlev=2
+ trs=3.22e-03 trd=3.22e-03 bex=155e-03 tcv=882e-06	+ trs=3.22e-03 trd=3.22e-03 bex=155e-03 tcv=882e-06
.model mfet20 njf	.model mfet20 njf
+ vto=-0.779 beta=2.72e-04 rsh=765 gamds=-0.006 is=3.88e-2 n=1.210 ldel=-0.385u	+ vto=-0.779 beta=2.72e-04 rsh=765 gamds=-0.006 is=3.88e-2 n=1.210 ldel=-0.385u
+ vgexp=2.55 alpha=3.94 ucrit=0.051 lambda=0.127 satexp=3.68	+ vgexp=2.55 alpha=3.94 ucrit=0.051 lambda=0.127 satexp=3.68
+ ng=0.595 nd=0.100 k1=0.204 eg=876e-03 gap1=1e-06 gap2=10 d=13.1	+ ng=0.595 nd=0.100 k1=0.204 eg=876e-03 gap1=1e-06 gap2=10 d=13.1
+ gcap=1.495e-03 crat=.1109	+ gcap=1.495e-03 crat=.1109
+ level=3 capop=1 sat=3	+ level=3 capop=1 sat=3
+ acm=1 hdif=2.615u rshl=0 rs=0 rd=0 xti=2 tlev=2	+ acm=1 hdif=2.615u rshl=0 rs=0 rd=0 xti=2 tlev=2
+ trs=2.24e-03 trd=2.24e-03 bex=481e-03 tcv=290e-06	+ trs=2.24e-03 trd=2.24e-03 bex=481e-03 tcv=290e-06
.model mfet04 njf	.model mfet04 njf
+ vto=0.227 beta=3.02e-04 rsh=2171 gamds=-0.041 is=1.02e-2 n=1.227 ldel=-0.385u	+ vto=0.227 beta=3.02e-04 rsh=2171 gamds=-0.041 is=1.02e-2 n=1.227 ldel=-0.385u
+ vgexp=2.35 alpha=6.53 ucrit=1e-4 lambda=0.072 satexp=3.29	+ vgexp=2.35 alpha=6.53 ucrit=1e-4 lambda=0.072 satexp=3.29
+ ng=0.961 nd=0.100 k1=0.224 eg=917e-03 gap1=1e-06 gap2=10 d=13.1	+ ng=0.961 nd=0.100 k1=0.224 eg=917e-03 gap1=1e-06 gap2=10 d=13.1
+ gcap=1.062e-03 crat=.1109	+ gcap=1.062e-03 crat=.1109
+ level=3 capop=1 sat=2	+ level=3 capop=1 sat=3
+ acm=1 hdif=0.815u rshl=0 rs=0 rd=0 xti=2 tlev=2	+ acm=1 hdif=0.815u rshl=0 rs=0 rd=0 xti=2 tlev=2
+ trs=-1.17e-03 trd=-1.17e-03 bex=-2 tcv=1.64e-03	+ trs=-1.17e-03 trd=-1.17e-03 bex=-2 tcv=1.64e-03
.model mfet10 njf	.model mfet10 njf
+ vto=0.236 beta=3.27e-04 rsh=1820 gamds=-0.024 is=1.10e-2 n=1.215 ldel=-0.385u	+ vto=0.236 beta=3.27e-04 rsh=1820 gamds=-0.024 is=1.10e-2 n=1.215 ldel=-0.385u
+ vgexp=2.38 alpha=6.28 ucrit=1e-4 lambda=0.091 satexp=3.01	+ vgexp=2.38 alpha=6.28 ucrit=1e-4 lambda=0.091 satexp=3.01
+ ng=0.937 nd=0.100 k1=0.289 eg=946e-03 gap1=1e-06 gap2=10 d=13.1	+ ng=0.937 nd=0.100 k1=0.289 eg=946e-03 gap1=1e-06 gap2=10 d=13.1
+ gcap=1.062e-03 crat=.1109	+ gcap=1.062e-03 crat=.1109
+ level=3 capop=1 sat=3	+ level=3 capop=1 sat=3
+ acm=1 hdif=1.115u rshl=0 rs=0 rd=0 xti=2 tlev=2	+ acm=1 hdif=1.115u rshl=0 rs=0 rd=0 xti=2 tlev=2
+ trs=6.1e-03 trd=6.1e-03 bex=500e-03 tcv=476e-06	+ trs=6.1e-03 trd=6.1e-03 bex=500e-03 tcv=476e-06
.model dio16 njf	.model dio16 njf
+ rsh=1883 is=3.61e-2 n=1.253 ldel=-0.385u	+ rsh=1883 is=3.61e-2 n=1.253 ldel=-0.385u
+ eg=831e-03 gap1=54e-06 gap2=210 d=13.1	+ eg=831e-03 gap1=54e-06 gap2=210 d=13.1
+ gcap=1.495e-03 crat=.1109	+ gcap=1.495e-03 crat=.1109
+ level=3 capop=1 sat=3	+ level=3 capop=1 sat=3
+ acm=1 hdif=0.815u rshl=0 rs=0 rd=0	+ acm=1 hdif=0.815u rshl=0 rs=0 rd=0
+ xti=2 tlev=2	+ xti=2 tlev=2
+ trs=-1.98e-03 trd=-1.98e-03	+ trs=-1.98e-03 trd=-1.98e-03
.model dio19 njf	.model dio19 njf
+ rsh=917 is=8.00e-2 n=1.225 ldel=-0.385u	+ rsh=917 is=8.00e-2 n=1.225 ldel=-0.385u
+ eg=821e-03 gap1=232e-06 gap2=210 d=13.1	+ eg=821e-03 gap1=232e-06 gap2=210 d=13.1
+ gcap=1.495e-03 crat=.1109	+ gcap=1.495e-03 crat=.1109
+ level=3 capop=1 sat=3	+ level=3 capop=1 sat=3
+ acm=1 hdif=1.615u rshl=0 rs=0 rd=0	+ acm=1 hdif=1.615u rshl=0 rs=0 rd=0
+ xti=2 tlev=2	+ xti=2 tlev=2
+ trs=-1.79e-03 trd=-1.79e-03	+ trs=-1.79e-03 trd=-1.79e-03
.model dio20 njf	.model dio20 njf
+ rsh=589 is=4.68e-2 n=1.220 ldel=-0.385u	+ rsh=589 is=4.68e-2 n=1.220 ldel=-0.385u
+ eg=814e-03 gap1=305e-06 gap2=210 d=13.1	+ eg=814e-03 gap1=305e-06 gap2=210 d=13.1
+ gcap=1.495e-03 crat=.1109	+ gcap=1.495e-03 crat=.1109
+ level=3 capop=1 sat=3	+ level=3 capop=1 sat=3
+ acm=1 hdif=2.615u rshl=0 rs=0 rd=0	+ acm=1 hdif=2.615u rshl=0 rs=0 rd=0
+ xti=2 tlev=2	+ xti=2 tlev=2
+ trs=-1.78e-03 trd=-1.78e-03	+ trs=-1.78e-03 trd=-1.78e-03
.model dio04 njf	.model dio04 njf
+ rsh=2748 is=1.38e-2 n=1.207 ldel=-0.385u	+ rsh=2748 is=1.38e-2 n=1.207 ldel=-0.385u
+ eg=848e-03 gap1=319e-06 gap2=10 d=13.1	+ eg=848e-03 gap1=319e-06 gap2=10 d=13.1
+ gcap=1.062e-03 crat=.1109	+ gcap=1.062e-03 crat=.1109
+ level=3 capop=1 sat=3	+ level=3 capop=1 sat=3
+ acm=1 hdif=0.815u rshl=0 rs=0 rd=0	+ acm=1 hdif=0.815u rshl=0 rs=0 rd=0
+ xti=2 tlev=2	+ xti=2 tlev=2
+ trs=-1.68e-03 trd=-1.68e-03	+ trs=-1.68e-03 trd=-1.68e-03
.model dio10 njf	.model dio10 njf
+ rsh=2080 is=1.29e-2 n=1.205 ldel=-0.385u	+ rsh=2080 is=1.29e-2 n=1.205 ldel=-0.385u
+ eg=840e-03 gap1=333e-06 gap2=210 d=13.1	+ eg=840e-03 gap1=333e-06 gap2=210 d=13.1
+ gcap=1.062e-03 crat=.1109	+ gcap=1.062e-03 crat=.1109
+ level=3 capop=1 sat=3	+ level=3 capop=1 sat=3
+ acm=1 hdif=1.115u rshl=0 rs=0 rd=0	+ acm=1 hdif=1.115u rshl=0 rs=0 rd=0
+ xti=2 tlev=2	+ xti=2 tlev=2
+ trs=-1.34e-03 trd=-1.34e-03	+ trs=-1.34e-03 trd=-1.34e-03
 	 
j01 d01 g01 s01 b01 mfet04 w=50u l=5u	j01 d01 g01 s01 b01 mfet04 w=50u l=5u
 	 
vd01   d01     0       0.0	vd01   d01     0       0.0
vg01   g01     0       0.0	vg01   g01     0       0.0
vs01   s01     0       0.0	vs01   s01     0       0.0
vb01   b01     0       0.0	vb01   b01     0       0.0
 	 
.dc vd01 -0.5 2.0 0.1 vg01 0.0 0.5 0.1	.dc vd01 -0.5 2.0 0.1 vg01 0.0 0.5 0.1
.print dc v(g01) i(vd01)	.print dc v(g01) i(vd01)
.options ingold=2	.options ingold=2
.end	.end
 ******    h s p i c e      9001b           14:35:27  13-dec90   sun           	 ******    h s p i c e      9001b           14:36: 1  13-dec90   sun           
test cases for mesfet model validation                                        	test cases for mesfet model validation                                        
****** copyright 1990 meta-software,inc. *****site:duke_u                     	****** copyright 1990 meta-software,inc. *****site:duke_u                     
******  jfet   model parameters          tnom=  25.000 temp=  25.000          	******  jfet   model parameters          tnom=  25.000 temp=  25.000          
******	******
	
***************************************************************************	***************************************************************************
***  common model parameters  model name:   0:mes15    model type:njf   ***	***  common model parameters  model name:   0:mes15    model type:njf   ***
***************************************************************************	***************************************************************************
	
    names  values   units     names  values   units     names  values   units	    names  values   units     names  values   units     names  values   units
    -----  ------   -----     -----  ------   -----     -----  ------   -----	    -----  ------   -----     -----  ------   -----     -----  ------   -----
	
  1*** basic ids parameters ***	  1*** basic ids parameters ***
     vto=-479.00m volts     lambda= 127.00m /v          beta= 272.00uamp/v**2	     vto=-479.00m volts     lambda= 127.00m /v          beta= 272.00uamp/v**2
       l=   0.    meters      ldel=   0.    meters         w=   0.    meters 	       l=   0.    meters      ldel=   0.    meters         w=   0.    meters 
    wdel=   0.    meters      hdif=   0.    meters      ldif=   0.    meters 	    wdel=   0.    meters      hdif=   0.    meters      ldif=   0.    meters 
   align=   0.    meters        ni=  14.50g 1/cm**3     area=   1.00         	   align=   0.    meters        ni=  14.50g 1/cm**3     area=   1.00         
      nd=   0.    /v            ng=   0.    /v     	      nd=   0.    /v            ng=   0.    /v     
	
  2*** gate diode dc parameters ***	  2*** gate diode dc parameters ***
      is=  38.80f amps           n=   1.00         	      is=  38.80f amps           n=   1.00         
	
  3*** capacitance parameters ***	  3*** capacitance parameters ***
     cgd=   0.    farad        cgs=   0.    farad       gcap=   0.   f/m**2  	     cgd=   0.    farad        cgs=   0.    farad       gcap=   0.   f/m**2  
    crat= 666.00m               fc= 500.00m                m= 500.00m        	    crat= 666.00m               fc= 500.00m                m= 500.00m        
      pb= 800.00m volts         tt=   0.    secs   	      pb= 800.00m volts         tt=   0.    secs   
	
  4*** parasitic resistance parameters ***	  4*** parasitic resistance parameters ***
      rd=   0.    ohms          rg=   0.    ohms          rs=   0.    ohms   	      rd=   0.    ohms          rg=   0.    ohms          rs=   0.    ohms   
     rsh=   0.   ohm/sq        rshl   0.   ohm/sq  	     rsh=   0.   ohm/sq        rshl   0.   ohm/sq  
	
  5*** temperature effect parameters ***	  5*** temperature effect parameters ***
    telv=   0.               telvc=   0.                 tcv=   0.    v/deg k	    telv=   0.               telvc=   0.                 tcv=   0.    v/deg k
     trd=   0.    /deg         trg=   0.    /deg         trs=   0.    /deg   	     trd=   0.    /deg         trg=   0.    /deg         trs=   0.    /deg   
     ctd=   0.    /deg         cts=   0.    /deg         tpb=   0.    /deg   	     ctd=   0.    /deg         cts=   0.    /deg         tpb=   0.    /deg   
      eg=   1.11  ev          gap1= 702.00u ev/deg      gap2=   1.11k deg    	      eg=   1.11  ev          gap1= 702.00u ev/deg      gap2=   1.11k deg    
     xti=   0.                tref=  25.00   deg c 	     xti=   0.                tref=  25.00   deg c 
	
  6*** noise parameters ***	  6*** noise parameters ***
      kf=   0.                  af=   1.00         	      kf=   0.                  af=   1.00         
	
  ***  level   2  model parameters  ***	  ***  level   2  model parameters  ***
	
   level=   2.00              lam1=   0.    /v     	   level=   2.00              lam1=   0.    /v     
 	 
	
***************************************************************************	***************************************************************************
***  common model parameters  model name:   0:mes16    model type:njf   ***	***  common model parameters  model name:   0:mes16    model type:njf   ***
***************************************************************************	***************************************************************************
	
    names  values   units     names  values   units     names  values   units	    names  values   units     names  values   units     names  values   units
    -----  ------   -----     -----  ------   -----     -----  ------   -----	    -----  ------   -----     -----  ------   -----     -----  ------   -----
	
  1*** basic ids parameters ***	  1*** basic ids parameters ***
     vto=-896.00m volts     lambda=  37.00m /v          beta= 308.00uamp/v**2	     vto=-896.00m volts     lambda=  37.00m /v          beta= 308.00uamp/v**2
       l=   0.    meters      ldel=   0.    meters         w=   0.    meters 	       l=   0.    meters      ldel=   0.    meters         w=   0.    meters 
    wdel=   0.    meters      hdif=   0.    meters      ldif=   0.    meters 	    wdel=   0.    meters      hdif=   0.    meters      ldif=   0.    meters 
   align=   0.    meters        ni=  14.50g 1/cm**3     area=   1.00         	   align=   0.    meters        ni=  14.50g 1/cm**3     area=   1.00         
      nd=   0.    /v            ng=   0.    /v     	      nd=   0.    /v            ng=   0.    /v     
	
  2*** gate diode dc parameters ***	  2*** gate diode dc parameters ***
      is=  76.60f amps           n=   1.00         	      is=  76.60f amps           n=   1.00         
	
  3*** capacitance parameters ***	  3*** capacitance parameters ***
     cgd=   0.    farad        cgs=   0.    farad       gcap=   0.   f/m**2  	     cgd=   0.    farad        cgs=   0.    farad       gcap=   0.   f/m**2  
    crat= 666.00m               fc= 500.00m                m= 500.00m        	    crat= 666.00m               fc= 500.00m                m= 500.00m        
      pb= 800.00m volts         tt=   0.    secs   	      pb= 800.00m volts         tt=   0.    secs   
	
  4*** parasitic resistance parameters ***	  4*** parasitic resistance parameters ***
      rd=   0.    ohms          rg=   0.    ohms          rs=   0.    ohms   	      rd=   0.    ohms          rg=   0.    ohms          rs=   0.    ohms   
     rsh=   0.   ohm/sq        rshl   0.   ohm/sq  	     rsh=   0.   ohm/sq        rshl   0.   ohm/sq  
	
  5*** temperature effect parameters ***	  5*** temperature effect parameters ***
    telv=   0.               telvc=   0.                 tcv=   0.    v/deg k	    telv=   0.               telvc=   0.                 tcv=   0.    v/deg k
     trd=   0.    /deg         trg=   0.    /deg         trs=   0.    /deg   	     trd=   0.    /deg         trg=   0.    /deg         trs=   0.    /deg   
     ctd=   0.    /deg         cts=   0.    /deg         tpb=   0.    /deg   	     ctd=   0.    /deg         cts=   0.    /deg         tpb=   0.    /deg   
      eg=   1.11  ev          gap1= 702.00u ev/deg      gap2=   1.11k deg    	      eg=   1.11  ev          gap1= 702.00u ev/deg      gap2=   1.11k deg    
     xti=   0.                tref=  25.00   deg c 	     xti=   0.                tref=  25.00   deg c 
	
  6*** noise parameters ***	  6*** noise parameters ***
      kf=   0.                  af=   1.00         	      kf=   0.                  af=   1.00         
	
  ***  level   2  model parameters  ***	  ***  level   2  model parameters  ***
	
   level=   2.00              lam1=   0.    /v     	   level=   2.00              lam1=   0.    /v     
 	 
	
***************************************************************************	***************************************************************************
***  common model parameters  model name:   0:mes19    model type:njf   ***	***  common model parameters  model name:   0:mes19    model type:njf   ***
***************************************************************************	***************************************************************************
	
    names  values   units     names  values   units     names  values   units	    names  values   units     names  values   units     names  values   units
    -----  ------   -----     -----  ------   -----     -----  ------   -----	    -----  ------   -----     -----  ------   -----     -----  ------   -----
	
  1*** basic ids parameters ***	  1*** basic ids parameters ***
     vto=-819.00m volts     lambda=  83.00m /v          beta= 283.00uamp/v**2	     vto=-819.00m volts     lambda=  83.00m /v          beta= 283.00uamp/v**2
       l=   0.    meters      ldel=   0.    meters         w=   0.    meters 	       l=   0.    meters      ldel=   0.    meters         w=   0.    meters 
    wdel=   0.    meters      hdif=   0.    meters      ldif=   0.    meters 	    wdel=   0.    meters      hdif=   0.    meters      ldif=   0.    meters 
   align=   0.    meters        ni=  14.50g 1/cm**3     area=   1.00         	   align=   0.    meters        ni=  14.50g 1/cm**3     area=   1.00         
      nd=   0.    /v            ng=   0.    /v     	      nd=   0.    /v            ng=   0.    /v     
	
  2*** gate diode dc parameters ***	  2*** gate diode dc parameters ***
      is= 110.00f amps           n=   1.00         	      is= 110.00f amps           n=   1.00         
	
  3*** capacitance parameters ***	  3*** capacitance parameters ***
     cgd=   0.    farad        cgs=   0.    farad       gcap=   0.   f/m**2  	     cgd=   0.    farad        cgs=   0.    farad       gcap=   0.   f/m**2  
    crat= 666.00m               fc= 500.00m                m= 500.00m        	    crat= 666.00m               fc= 500.00m                m= 500.00m        
      pb= 800.00m volts         tt=   0.    secs   	      pb= 800.00m volts         tt=   0.    secs   
	
  4*** parasitic resistance parameters ***	  4*** parasitic resistance parameters ***
      rd=   0.    ohms          rg=   0.    ohms          rs=   0.    ohms   	      rd=   0.    ohms          rg=   0.    ohms          rs=   0.    ohms   
     rsh=   0.   ohm/sq        rshl   0.   ohm/sq  	     rsh=   0.   ohm/sq        rshl   0.   ohm/sq  
	
  5*** temperature effect parameters ***	  5*** temperature effect parameters ***
    telv=   0.               telvc=   0.                 tcv=   0.    v/deg k	    telv=   0.               telvc=   0.                 tcv=   0.    v/deg k
     trd=   0.    /deg         trg=   0.    /deg         trs=   0.    /deg   	     trd=   0.    /deg         trg=   0.    /deg         trs=   0.    /deg   
     ctd=   0.    /deg         cts=   0.    /deg         tpb=   0.    /deg   	     ctd=   0.    /deg         cts=   0.    /deg         tpb=   0.    /deg   
      eg=   1.11  ev          gap1= 702.00u ev/deg      gap2=   1.11k deg    	      eg=   1.11  ev          gap1= 702.00u ev/deg      gap2=   1.11k deg    
     xti=   0.                tref=  25.00   deg c 	     xti=   0.                tref=  25.00   deg c 
	
  6*** noise parameters ***	  6*** noise parameters ***
      kf=   0.                  af=   1.00         	      kf=   0.                  af=   1.00         
	
  ***  level   2  model parameters  ***	  ***  level   2  model parameters  ***
	
   level=   2.00              lam1=   0.    /v     	   level=   2.00              lam1=   0.    /v     
 	 
	
***************************************************************************	***************************************************************************
***  common model parameters  model name:   0:mes20    model type:njf   ***	***  common model parameters  model name:   0:mes20    model type:njf   ***
***************************************************************************	***************************************************************************
	
    names  values   units     names  values   units     names  values   units	    names  values   units     names  values   units     names  values   units
    -----  ------   -----     -----  ------   -----     -----  ------   -----	    -----  ------   -----     -----  ------   -----     -----  ------   -----
	
  1*** basic ids parameters ***	  1*** basic ids parameters ***
     vto=-798.00m volts     lambda= 127.00m /v          beta= 314.00uamp/v**2	     vto=-798.00m volts     lambda= 127.00m /v          beta= 314.00uamp/v**2
       l=   0.    meters      ldel=   0.    meters         w=   0.    meters 	       l=   0.    meters      ldel=   0.    meters         w=   0.    meters 
    wdel=   0.    meters      hdif=   0.    meters      ldif=   0.    meters 	    wdel=   0.    meters      hdif=   0.    meters      ldif=   0.    meters 
   align=   0.    meters        ni=  14.50g 1/cm**3     area=   1.00         	   align=   0.    meters        ni=  14.50g 1/cm**3     area=   1.00         
      nd=   0.    /v            ng=   0.    /v     	      nd=   0.    /v            ng=   0.    /v     
	
  2*** gate diode dc parameters ***	  2*** gate diode dc parameters ***
      is=  38.80f amps           n=   1.00         	      is=  38.80f amps           n=   1.00         
	
  3*** capacitance parameters ***	  3*** capacitance parameters ***
     cgd=   0.    farad        cgs=   0.    farad       gcap=   0.   f/m**2  	     cgd=   0.    farad        cgs=   0.    farad       gcap=   0.   f/m**2  
    crat= 666.00m               fc= 500.00m                m= 500.00m        	    crat= 666.00m               fc= 500.00m                m= 500.00m        
      pb= 800.00m volts         tt=   0.    secs   	      pb= 800.00m volts         tt=   0.    secs   
	
  4*** parasitic resistance parameters ***	  4*** parasitic resistance parameters ***
      rd=   0.    ohms          rg=   0.    ohms          rs=   0.    ohms   	      rd=   0.    ohms          rg=   0.    ohms          rs=   0.    ohms   
     rsh=   0.   ohm/sq        rshl   0.   ohm/sq  	     rsh=   0.   ohm/sq        rshl   0.   ohm/sq  
	
  5*** temperature effect parameters ***	  5*** temperature effect parameters ***
    telv=   0.               telvc=   0.                 tcv=   0.    v/deg k	    telv=   0.               telvc=   0.                 tcv=   0.    v/deg k
     trd=   0.    /deg         trg=   0.    /deg         trs=   0.    /deg   	     trd=   0.    /deg         trg=   0.    /deg         trs=   0.    /deg   
     ctd=   0.    /deg         cts=   0.    /deg         tpb=   0.    /deg   	     ctd=   0.    /deg         cts=   0.    /deg         tpb=   0.    /deg   
      eg=   1.11  ev          gap1= 702.00u ev/deg      gap2=   1.11k deg    	      eg=   1.11  ev          gap1= 702.00u ev/deg      gap2=   1.11k deg    
     xti=   0.                tref=  25.00   deg c 	     xti=   0.                tref=  25.00   deg c 
	
  6*** noise parameters ***	  6*** noise parameters ***
      kf=   0.                  af=   1.00         	      kf=   0.                  af=   1.00         
	
  ***  level   2  model parameters  ***	  ***  level   2  model parameters  ***
	
   level=   2.00              lam1=   0.    /v     	   level=   2.00              lam1=   0.    /v     
 	 
	
***************************************************************************	***************************************************************************
***  common model parameters  model name:   0:mes04    model type:njf   ***	***  common model parameters  model name:   0:mes04    model type:njf   ***
***************************************************************************	***************************************************************************
	
    names  values   units     names  values   units     names  values   units	    names  values   units     names  values   units     names  values   units
    -----  ------   -----     -----  ------   -----     -----  ------   -----	    -----  ------   -----     -----  ------   -----     -----  ------   -----
	
  1*** basic ids parameters ***	  1*** basic ids parameters ***
     vto= 267.00m volts     lambda=  72.00m /v          beta= 356.00uamp/v**2	     vto= 267.00m volts     lambda=  72.00m /v          beta= 356.00uamp/v**2
       l=   0.    meters      ldel=   0.    meters         w=   0.    meters 	       l=   0.    meters      ldel=   0.    meters         w=   0.    meters 
    wdel=   0.    meters      hdif=   0.    meters      ldif=   0.    meters 	    wdel=   0.    meters      hdif=   0.    meters      ldif=   0.    meters 
   align=   0.    meters        ni=  14.50g 1/cm**3     area=   1.00         	   align=   0.    meters        ni=  14.50g 1/cm**3     area=   1.00         
      nd=   0.    /v            ng=   0.    /v     	      nd=   0.    /v            ng=   0.    /v     
	
  2*** gate diode dc parameters ***	  2*** gate diode dc parameters ***
      is=  10.20f amps           n=   1.00         	      is=  10.20f amps           n=   1.00         
	
  3*** capacitance parameters ***	  3*** capacitance parameters ***
     cgd=   0.    farad        cgs=   0.    farad       gcap=   0.   f/m**2  	     cgd=   0.    farad        cgs=   0.    farad       gcap=   0.   f/m**2  
    crat= 666.00m               fc= 500.00m                m= 500.00m        	    crat= 666.00m               fc= 500.00m                m= 500.00m        
      pb= 800.00m volts         tt=   0.    secs   	      pb= 800.00m volts         tt=   0.    secs   
	
  4*** parasitic resistance parameters ***	  4*** parasitic resistance parameters ***
      rd=   0.    ohms          rg=   0.    ohms          rs=   0.    ohms   	      rd=   0.    ohms          rg=   0.    ohms          rs=   0.    ohms   
     rsh=   0.   ohm/sq        rshl   0.   ohm/sq  	     rsh=   0.   ohm/sq        rshl   0.   ohm/sq  
	
  5*** temperature effect parameters ***	  5*** temperature effect parameters ***
    telv=   0.               telvc=   0.                 tcv=   0.    v/deg k	    telv=   0.               telvc=   0.                 tcv=   0.    v/deg k
     trd=   0.    /deg         trg=   0.    /deg         trs=   0.    /deg   	     trd=   0.    /deg         trg=   0.    /deg         trs=   0.    /deg   
     ctd=   0.    /deg         cts=   0.    /deg         tpb=   0.    /deg   	     ctd=   0.    /deg         cts=   0.    /deg         tpb=   0.    /deg   
      eg=   1.11  ev          gap1= 702.00u ev/deg      gap2=   1.11k deg    	      eg=   1.11  ev          gap1= 702.00u ev/deg      gap2=   1.11k deg    
     xti=   0.                tref=  25.00   deg c 	     xti=   0.                tref=  25.00   deg c 
	
  6*** noise parameters ***	  6*** noise parameters ***
      kf=   0.                  af=   1.00         	      kf=   0.                  af=   1.00         
	
  ***  level   2  model parameters  ***	  ***  level   2  model parameters  ***
	
   level=   2.00              lam1=   0.    /v     	   level=   2.00              lam1=   0.    /v     
 	 
	
***************************************************************************	***************************************************************************
***  common model parameters  model name:   0:mes10    model type:njf   ***	***  common model parameters  model name:   0:mes10    model type:njf   ***
***************************************************************************	***************************************************************************
	
    names  values   units     names  values   units     names  values   units	    names  values   units     names  values   units     names  values   units