Mon Dec 17 11:35:30 EST 1990
 sun      hostid 2100046b         reading file 
/usr/project/vlsi/h9001/permit.hsp
 reading install configuration file: /usr/project/vlsi/h9001/meta.cfg
******    h s p i c e      9001b           11:35:31  17-dec90   sun           
*** model test for subthreshold characterisitics ***                          
****** copyright 1990 meta-software,inc. *****site:duke_u                     
******  input listing                    evaluation expires 911130            
******
.model mfet1 njf
+ vto=0.0 beta=1 gamds=0.0 is=0 pb=0.8 vbi=0.5
+ vgexp=2.0 alpha=10 ucrit=0.0 lambda=0.0 satexp=3.0
+ ng=0.0 nd=0.0 d=10.9 a=0.0u level=3 capop=1 sat=3
+ k1=0.0
 
.model mfet2 njf
+ vto=0.0 beta=1 gamds=0.0 is=0 pb=0.8 vbi=0.5
+ vgexp=2.0 alpha=10 ucrit=0.0 lambda=0.0 satexp=3.0
+ ng=0.0 nd=0.0 d=10.9 a=0.0u level=3 capop=1 sat=3
+ k1=0.2
 
.model mfet3 njf
+ vto=0.0 beta=1 gamds=0.0 is=0 pb=0.8 vbi=0.5
+ vgexp=2.0 alpha=10 ucrit=0.0 lambda=0.0 satexp=3.0
+ ng=0.0 nd=0.0 d=10.9 a=0.0u level=3 capop=1 sat=3
+ k1=0.4
 
.model mfet4 njf
+ vto=0.0 beta=1 gamds=0.0 is=0 pb=0.8 vbi=0.5
+ vgexp=2.0 alpha=10 ucrit=0.0 lambda=0.0 satexp=3.0
+ ng=0.0 nd=0.0 d=10.9 a=0.0u level=3 capop=1 sat=3
+ k1=0.6
 
.model mfet5 njf
+ vto=0.0 beta=1 gamds=0.0 is=0 pb=0.8 vbi=0.5
+ vgexp=2.0 alpha=10 ucrit=0.0 lambda=0.0 satexp=3.0
+ ng=0.0 nd=0.0 d=10.9 a=0.0u level=3 capop=1 sat=3
+ k1=0.8
 
.model mfet6 njf
+ vto=0.0 beta=1 gamds=0.0 is=0 pb=0.8 vbi=0.5
+ vgexp=2.0 alpha=10 ucrit=0.0 lambda=0.0 satexp=3.0
+ ng=0.0 nd=0.0 d=10.9 a=0.0u level=3 capop=1 sat=3
+ k1=1.0
 
j01 d01 g s b mfet1
j02 d02 g s b mfet2
j03 d03 g s b mfet3
j04 d04 g s b mfet4
j05 d05 g s b mfet5
j06 d06 g s b mfet6
 
vd01   d01     0       2.0
vd02   d02     0       2.0
vd03   d03     0       2.0
vd04   d04     0       2.0
vd05   d05     0       2.0
vd06   d06     0       2.0
vg     g       0       0.5
vs     s       0       0.0
vb     b       0       0.0
 
.dc vb -2.0 2.0 0.05
.print dc i(vd01) i(vd02) i(vd03) i(vd04) i(vd05) i(vd06)
.options ingold=2 co=132
.end
 ******    h s p i c e      9001b           11:35:31  17-dec90   sun           
*** model test for subthreshold characterisitics ***                          
****** copyright 1990 meta-software,inc. *****site:duke_u                     
******  jfet   model parameters          tnom=  25.000 temp=  25.000          
******

***************************************************************************
***  common model parameters  model name:   0:mfet1    model type:njf   ***
***************************************************************************

    names  values   units     names  values   units     names  values   units     names  values   units     names  values   units
    -----  ------   -----     -----  ------   -----     -----  ------   -----     -----  ------   -----     -----  ------   -----

  1*** basic ids parameters ***
     vto=   0.    volts     lambda=   0.    /v          beta=   1.00 amp/v**2        l=   0.    meters      ldel=   0.    meters 
       w=   0.    meters      wdel=   0.    meters      hdif=   0.    meters      ldif=   0.    meters     align=   0.    meters 
      ni=  14.50g 1/cm**3     area=   1.00                nd=   0.    /v            ng=   0.    /v     

  2*** gate diode dc parameters ***
      is=   0.    amps           n=   1.00         

  3*** capacitance parameters ***
     cgd=   0.    farad        cgs=   0.    farad       gcap=   0.   f/m**2       crat= 666.00m               fc= 500.00m        
       m= 500.00m               pb= 800.00m volts         tt=   0.    secs   

  4*** parasitic resistance parameters ***
      rd=   0.    ohms          rg=   0.    ohms          rs=   0.    ohms         rsh=   0.   ohm/sq        rshl   0.   ohm/sq  

  5*** temperature effect parameters ***
    telv=   0.               telvc=   0.                 tcv=   0.    v/deg k      trd=   0.    /deg         trg=   0.    /deg   
     trs=   0.    /deg         ctd=   0.    /deg         cts=   0.    /deg         tpb=   0.    /deg          eg=   1.11  ev     
    gap1= 702.00u ev/deg      gap2=   1.11k deg          xti=   0.                tref=  25.00   deg c 

  6*** noise parameters ***
      kf=   0.                  af=   1.00         

  ***  level   3  model parameters  ***

   level=   3.00                 a=   0.    meters     alpha=  10.00                 d=  10.90             gamds=   0.           
   nchan= 1.5e+22 #/cm**3      sat=   3.00               vbi= 500.00m volts         vp=   0.    volts      vgexp=   2.00         
  satexp=   3.00                k1=   0.           
 

***************************************************************************
***  common model parameters  model name:   0:mfet2    model type:njf   ***
***************************************************************************

    names  values   units     names  values   units     names  values   units     names  values   units     names  values   units
    -----  ------   -----     -----  ------   -----     -----  ------   -----     -----  ------   -----     -----  ------   -----

  1*** basic ids parameters ***
     vto=   0.    volts     lambda=   0.    /v          beta=   1.00 amp/v**2        l=   0.    meters      ldel=   0.    meters 
       w=   0.    meters      wdel=   0.    meters      hdif=   0.    meters      ldif=   0.    meters     align=   0.    meters 
      ni=  14.50g 1/cm**3     area=   1.00                nd=   0.    /v            ng=   0.    /v     

  2*** gate diode dc parameters ***
      is=   0.    amps           n=   1.00         

  3*** capacitance parameters ***
     cgd=   0.    farad        cgs=   0.    farad       gcap=   0.   f/m**2       crat= 666.00m               fc= 500.00m        
       m= 500.00m               pb= 800.00m volts         tt=   0.    secs   

  4*** parasitic resistance parameters ***
      rd=   0.    ohms          rg=   0.    ohms          rs=   0.    ohms         rsh=   0.   ohm/sq        rshl   0.   ohm/sq  

  5*** temperature effect parameters ***
    telv=   0.               telvc=   0.                 tcv=   0.    v/deg k      trd=   0.    /deg         trg=   0.    /deg   
     trs=   0.    /deg         ctd=   0.    /deg         cts=   0.    /deg         tpb=   0.    /deg          eg=   1.11  ev     
    gap1= 702.00u ev/deg      gap2=   1.11k deg          xti=   0.                tref=  25.00   deg c 

  6*** noise parameters ***
      kf=   0.                  af=   1.00         

  ***  level   3  model parameters  ***

   level=   3.00                 a=   0.    meters     alpha=  10.00                 d=  10.90             gamds=   0.           
   nchan= 1.5e+22 #/cm**3      sat=   3.00               vbi= 500.00m volts         vp=   0.    volts      vgexp=   2.00         
  satexp=   3.00                k1= 200.00m        
 

***************************************************************************
***  common model parameters  model name:   0:mfet3    model type:njf   ***
***************************************************************************

    names  values   units     names  values   units     names  values   units     names  values   units     names  values   units
    -----  ------   -----     -----  ------   -----     -----  ------   -----     -----  ------   -----     -----  ------   -----

  1*** basic ids parameters ***
     vto=   0.    volts     lambda=   0.    /v          beta=   1.00 amp/v**2        l=   0.    meters      ldel=   0.    meters 
       w=   0.    meters      wdel=   0.    meters      hdif=   0.    meters      ldif=   0.    meters     align=   0.    meters 
      ni=  14.50g 1/cm**3     area=   1.00                nd=   0.    /v            ng=   0.    /v     

  2*** gate diode dc parameters ***
      is=   0.    amps           n=   1.00         

  3*** capacitance parameters ***
     cgd=   0.    farad        cgs=   0.    farad       gcap=   0.   f/m**2       crat= 666.00m               fc= 500.00m        
       m= 500.00m               pb= 800.00m volts         tt=   0.    secs   

  4*** parasitic resistance parameters ***
      rd=   0.    ohms          rg=   0.    ohms          rs=   0.    ohms         rsh=   0.   ohm/sq        rshl   0.   ohm/sq  

  5*** temperature effect parameters ***
    telv=   0.               telvc=   0.                 tcv=   0.    v/deg k      trd=   0.    /deg         trg=   0.    /deg   
     trs=   0.    /deg         ctd=   0.    /deg         cts=   0.    /deg         tpb=   0.    /deg          eg=   1.11  ev     
    gap1= 702.00u ev/deg      gap2=   1.11k deg          xti=   0.                tref=  25.00   deg c 

  6*** noise parameters ***
      kf=   0.                  af=   1.00         

  ***  level   3  model parameters  ***

   level=   3.00                 a=   0.    meters     alpha=  10.00                 d=  10.90             gamds=   0.           
   nchan= 1.5e+22 #/cm**3      sat=   3.00               vbi= 500.00m volts         vp=   0.    volts      vgexp=   2.00         
  satexp=   3.00                k1= 400.00m        
 

***************************************************************************
***  common model parameters  model name:   0:mfet4    model type:njf   ***
***************************************************************************

    names  values   units     names  values   units     names  values   units     names  values   units     names  values   units
    -----  ------   -----     -----  ------   -----     -----  ------   -----     -----  ------   -----     -----  ------   -----

  1*** basic ids parameters ***
     vto=   0.    volts     lambda=   0.    /v          beta=   1.00 amp/v**2        l=   0.    meters      ldel=   0.    meters 
       w=   0.    meters      wdel=   0.    meters      hdif=   0.    meters      ldif=   0.    meters     align=   0.    meters 
      ni=  14.50g 1/cm**3     area=   1.00                nd=   0.    /v            ng=   0.    /v     

  2*** gate diode dc parameters ***
      is=   0.    amps           n=   1.00         

  3*** capacitance parameters ***
     cgd=   0.    farad        cgs=   0.    farad       gcap=   0.   f/m**2       crat= 666.00m               fc= 500.00m        
       m= 500.00m               pb= 800.00m volts         tt=   0.    secs   

  4*** parasitic resistance parameters ***
      rd=   0.    ohms          rg=   0.    ohms          rs=   0.    ohms         rsh=   0.   ohm/sq        rshl   0.   ohm/sq  

  5*** temperature effect parameters ***
    telv=   0.               telvc=   0.                 tcv=   0.    v/deg k      trd=   0.    /deg         trg=   0.    /deg   
     trs=   0.    /deg         ctd=   0.    /deg         cts=   0.    /deg         tpb=   0.    /deg          eg=   1.11  ev     
    gap1= 702.00u ev/deg      gap2=   1.11k deg          xti=   0.                tref=  25.00   deg c 

  6*** noise parameters ***
      kf=   0.                  af=   1.00         

  ***  level   3  model parameters  ***

   level=   3.00                 a=   0.    meters     alpha=  10.00                 d=  10.90             gamds=   0.           
   nchan= 1.5e+22 #/cm**3      sat=   3.00               vbi= 500.00m volts         vp=   0.    volts      vgexp=   2.00         
  satexp=   3.00                k1= 600.00m        
 

***************************************************************************
***  common model parameters  model name:   0:mfet5    model type:njf   ***
***************************************************************************

    names  values   units     names  values   units     names  values   units     names  values   units     names  values   units
    -----  ------   -----     -----  ------   -----     -----  ------   -----     -----  ------   -----     -----  ------   -----

  1*** basic ids parameters ***
     vto=   0.    volts     lambda=   0.    /v          beta=   1.00 amp/v**2        l=   0.    meters      ldel=   0.    meters 
       w=   0.    meters      wdel=   0.    meters      hdif=   0.    meters      ldif=   0.    meters     align=   0.    meters 
      ni=  14.50g 1/cm**3     area=   1.00                nd=   0.    /v            ng=   0.    /v     

  2*** gate diode dc parameters ***
      is=   0.    amps           n=   1.00         

  3*** capacitance parameters ***
     cgd=   0.    farad        cgs=   0.    farad       gcap=   0.   f/m**2       crat= 666.00m               fc= 500.00m        
       m= 500.00m               pb= 800.00m volts         tt=   0.    secs   

  4*** parasitic resistance parameters ***
      rd=   0.    ohms          rg=   0.    ohms          rs=   0.    ohms         rsh=   0.   ohm/sq        rshl   0.   ohm/sq  

  5*** temperature effect parameters ***
    telv=   0.               telvc=   0.                 tcv=   0.    v/deg k      trd=   0.    /deg         trg=   0.    /deg   
     trs=   0.    /deg         ctd=   0.    /deg         cts=   0.    /deg         tpb=   0.    /deg          eg=   1.11  ev     
    gap1= 702.00u ev/deg      gap2=   1.11k deg          xti=   0.                tref=  25.00   deg c 

  6*** noise parameters ***
      kf=   0.                  af=   1.00         

  ***  level   3  model parameters  ***

   level=   3.00                 a=   0.    meters     alpha=  10.00                 d=  10.90             gamds=   0.           
   nchan= 1.5e+22 #/cm**3      sat=   3.00               vbi= 500.00m volts         vp=   0.    volts      vgexp=   2.00         
  satexp=   3.00                k1= 800.00m        
 

***************************************************************************
***  common model parameters  model name:   0:mfet6    model type:njf   ***
***************************************************************************

    names  values   units     names  values   units     names  values   units     names  values   units     names  values   units
    -----  ------   -----     -----  ------   -----     -----  ------   -----     -----  ------   -----     -----  ------   -----

  1*** basic ids parameters ***
     vto=   0.    volts     lambda=   0.    /v          beta=   1.00 amp/v**2        l=   0.    meters      ldel=   0.    meters 
       w=   0.    meters      wdel=   0.    meters      hdif=   0.    meters      ldif=   0.    meters     align=   0.    meters 
      ni=  14.50g 1/cm**3     area=   1.00                nd=   0.    /v            ng=   0.    /v     

  2*** gate diode dc parameters ***
      is=   0.    amps           n=   1.00         

  3*** capacitance parameters ***
     cgd=   0.    farad        cgs=   0.    farad       gcap=   0.   f/m**2       crat= 666.00m               fc= 500.00m        
       m= 500.00m               pb= 800.00m volts         tt=   0.    secs   

  4*** parasitic resistance parameters ***
      rd=   0.    ohms          rg=   0.    ohms          rs=   0.    ohms         rsh=   0.   ohm/sq        rshl   0.   ohm/sq  

  5*** temperature effect parameters ***
    telv=   0.               telvc=   0.                 tcv=   0.    v/deg k      trd=   0.    /deg         trg=   0.    /deg   
     trs=   0.    /deg         ctd=   0.    /deg         cts=   0.    /deg         tpb=   0.    /deg          eg=   1.11  ev     
    gap1= 702.00u ev/deg      gap2=   1.11k deg          xti=   0.                tref=  25.00   deg c 

  6*** noise parameters ***
      kf=   0.                  af=   1.00         

  ***  level   3  model parameters  ***

   level=   3.00                 a=   0.    meters     alpha=  10.00                 d=  10.90             gamds=   0.           
   nchan= 1.5e+22 #/cm**3      sat=   3.00               vbi= 500.00m volts         vp=   0.    volts      vgexp=   2.00         
  satexp=   3.00                k1=   1.00         
 

**warning**: the following singular supplies were terminated to 1 meg resistor 
  supply       node1            node2
 vb                      0:b                     0:0               
 ******    h s p i c e      9001b           11:35:31  17-dec90   sun           
*** model test for subthreshold characterisitics ***                          
****** copyright 1990 meta-software,inc. *****site:duke_u                     
******  dc transfer curves               tnom=  25.000 temp=  25.000          
******

       volt    current      current      current      current      current      current    
                  vd01         vd02         vd03         vd04         vd05         vd06    
-2.0000e+00   -2.500e-01   -1.058e-01   -2.262e-02   -3.500e-12   -3.500e-12   -3.500e-12  
-1.9500e+00   -2.500e-01   -1.078e-01   -2.457e-02   -3.500e-12   -3.500e-12   -3.500e-12  
-1.9000e+00   -2.500e-01   -1.099e-01   -2.662e-02   -3.500e-12   -3.500e-12   -3.500e-12  
-1.8500e+00   -2.500e-01   -1.121e-01   -2.878e-02   -2.008e-05   -3.500e-12   -3.500e-12  
-1.8000e+00   -2.500e-01   -1.143e-01   -3.105e-02   -2.050e-04   -3.500e-12   -3.500e-12  
-1.7500e+00   -2.500e-01   -1.166e-01   -3.343e-02   -5.887e-04   -3.500e-12   -3.500e-12  
-1.7000e+00   -2.500e-01   -1.189e-01   -3.593e-02   -1.178e-03   -3.500e-12   -3.500e-12  
-1.6500e+00   -2.500e-01   -1.212e-01   -3.854e-02   -1.979e-03   -3.500e-12   -3.500e-12  
-1.6000e+00   -2.500e-01   -1.236e-01   -4.129e-02   -3.001e-03   -3.500e-12   -3.500e-12  
-1.5500e+00   -2.500e-01   -1.261e-01   -4.415e-02   -4.250e-03   -3.500e-12   -3.500e-12  
-1.5000e+00   -2.500e-01   -1.286e-01   -4.716e-02   -5.736e-03   -3.500e-12   -3.500e-12  
-1.4500e+00   -2.500e-01   -1.311e-01   -5.030e-02   -7.467e-03   -3.500e-12   -3.500e-12  
-1.4000e+00   -2.500e-01   -1.338e-01   -5.358e-02   -9.452e-03   -3.500e-12   -3.500e-12  
-1.3500e+00   -2.500e-01   -1.365e-01   -5.702e-02   -1.170e-02   -3.500e-12   -3.500e-12  
-1.3000e+00   -2.500e-01   -1.392e-01   -6.061e-02   -1.423e-02   -3.500e-12   -3.500e-12  
-1.2500e+00   -2.500e-01   -1.420e-01   -6.436e-02   -1.704e-02   -5.454e-05   -3.500e-12  
-1.2000e+00   -2.500e-01   -1.449e-01   -6.828e-02   -2.015e-02   -5.113e-04   -3.500e-12  
-1.1500e+00   -2.500e-01   -1.479e-01   -7.238e-02   -2.358e-02   -1.449e-03   -3.500e-12  
-1.1000e+00   -2.500e-01   -1.509e-01   -7.666e-02   -2.733e-02   -2.890e-03   -3.500e-12  
-1.0500e+00   -2.500e-01   -1.540e-01   -8.114e-02   -3.142e-02   -4.857e-03   -3.500e-12  
-1.0000e+00   -2.500e-01   -1.572e-01   -8.582e-02   -3.588e-02   -7.377e-03   -3.500e-12  
-9.5000e-01   -2.500e-01   -1.605e-01   -9.071e-02   -4.071e-02   -1.048e-02   -8.687e-06  
-9.0000e-01   -2.500e-01   -1.638e-01   -9.583e-02   -4.594e-02   -1.419e-02   -5.708e-04  
-8.5000e-01   -2.500e-01   -1.673e-01   -1.012e-01   -5.159e-02   -1.854e-02   -2.044e-03  
-8.0000e-01   -2.500e-01   -1.709e-01   -1.068e-01   -5.768e-02   -2.358e-02   -4.480e-03  
-7.5000e-01   -2.500e-01   -1.746e-01   -1.126e-01   -6.423e-02   -2.933e-02   -7.934e-03  
-7.0000e-01   -2.500e-01   -1.784e-01   -1.188e-01   -7.129e-02   -3.585e-02   -1.247e-02  
-6.5000e-01   -2.500e-01   -1.823e-01   -1.252e-01   -7.887e-02   -4.317e-02   -1.815e-02  
-6.0000e-01   -2.500e-01   -1.863e-01   -1.320e-01   -8.701e-02   -5.136e-02   -2.506e-02  
-5.5000e-01   -2.500e-01   -1.905e-01   -1.391e-01   -9.576e-02   -6.048e-02   -3.327e-02  
-5.0000e-01   -2.500e-01   -1.949e-01   -1.466e-01   -1.051e-01   -7.059e-02   -4.289e-02  
-4.5000e-01   -2.500e-01   -1.993e-01   -1.544e-01   -1.152e-01   -8.176e-02   -5.402e-02  
-4.0000e-01   -2.500e-01   -2.040e-01   -1.627e-01   -1.261e-01   -9.409e-02   -6.678e-02  
-3.5000e-01   -2.500e-01   -2.089e-01   -1.714e-01   -1.377e-01   -1.077e-01   -8.131e-02  
-3.0000e-01   -2.500e-01   -2.139e-01   -1.807e-01   -1.502e-01   -1.226e-01   -9.777e-02  
-2.5000e-01   -2.500e-01   -2.192e-01   -1.905e-01   -1.637e-01   -1.390e-01   -1.163e-01  
-2.0000e-01   -2.500e-01   -2.248e-01   -2.009e-01   -1.783e-01   -1.571e-01   -1.372e-01  
-1.5000e-01   -2.500e-01   -2.306e-01   -2.119e-01   -1.941e-01   -1.770e-01   -1.607e-01  
-1.0000e-01   -2.500e-01   -2.367e-01   -2.237e-01   -2.111e-01   -1.989e-01   -1.871e-01  
-5.0000e-02   -2.500e-01   -2.431e-01   -2.364e-01   -2.297e-01   -2.232e-01   -2.167e-01  
   0.         -2.500e-01   -2.500e-01   -2.500e-01   -2.500e-01   -2.500e-01   -2.500e-01  
 5.0000e-02   -2.500e-01   -2.570e-01   -2.640e-01   -2.711e-01   -2.784e-01   -2.857e-01  
 1.0000e-01   -2.500e-01   -2.637e-01   -2.777e-01   -2.921e-01   -3.069e-01   -3.220e-01  
 1.5000e-01   -2.500e-01   -2.702e-01   -2.912e-01   -3.130e-01   -3.356e-01   -3.589e-01  
 2.0000e-01   -2.500e-01   -2.766e-01   -3.045e-01   -3.338e-01   -3.644e-01   -3.963e-01  
 2.5000e-01   -2.500e-01   -2.828e-01   -3.176e-01   -3.544e-01   -3.933e-01   -4.342e-01  
 3.0000e-01   -2.500e-01   -2.889e-01   -3.305e-01   -3.750e-01   -4.223e-01   -4.724e-01  
 3.5000e-01   -2.500e-01   -2.948e-01   -3.433e-01   -3.955e-01   -4.514e-01   -5.110e-01  
 4.0000e-01   -2.500e-01   -3.006e-01   -3.560e-01   -4.160e-01   -4.806e-01   -5.499e-01  
 4.5000e-01   -2.500e-01   -3.064e-01   -3.685e-01   -4.363e-01   -5.099e-01   -5.892e-01  
 5.0000e-01   -2.500e-01   -3.120e-01   -3.809e-01   -4.566e-01   -5.392e-01   -6.287e-01  
 5.5000e-01   -2.500e-01   -3.176e-01   -3.932e-01   -4.769e-01   -5.686e-01   -6.685e-01  
 6.0000e-01   -2.500e-01   -3.230e-01   -4.054e-01   -4.971e-01   -5.981e-01   -7.085e-01  
 6.5000e-01   -2.500e-01   -3.284e-01   -4.175e-01   -5.172e-01   -6.276e-01   -7.487e-01  
 7.0000e-01   -2.500e-01   -3.337e-01   -4.295e-01   -5.373e-01   -6.572e-01   -7.891e-01  
 7.5000e-01   -2.500e-01   -3.389e-01   -4.414e-01   -5.573e-01   -6.868e-01   -8.298e-01  
 8.0000e-01   -2.500e-01   -3.441e-01   -4.532e-01   -5.774e-01   -7.165e-01   -8.706e-01  
 8.5000e-01   -2.500e-01   -3.492e-01   -4.650e-01   -5.973e-01   -7.462e-01   -9.116e-01  
 9.0000e-01   -2.500e-01   -3.543e-01   -4.767e-01   -6.173e-01   -7.760e-01   -9.528e-01  
 9.5000e-01   -2.500e-01   -3.593e-01   -4.884e-01   -6.372e-01   -8.058e-01   -9.941e-01  
 1.0000e+00   -2.500e-01   -3.642e-01   -4.999e-01   -6.570e-01   -8.356e-01   -1.035e+00  
 1.0500e+00   -2.500e-01   -3.691e-01   -5.114e-01   -6.769e-01   -8.655e-01   -1.077e+00  
 1.1000e+00   -2.500e-01   -3.740e-01   -5.229e-01   -6.967e-01   -8.954e-01   -1.118e+00  
 1.1500e+00   -2.500e-01   -3.788e-01   -5.343e-01   -7.165e-01   -9.253e-01   -1.160e+00  
 1.2000e+00   -2.500e-01   -3.836e-01   -5.457e-01   -7.362e-01   -9.553e-01   -1.202e+00  
 1.2500e+00   -2.500e-01   -3.883e-01   -5.570e-01   -7.560e-01   -9.853e-01   -1.244e+00  
 1.3000e+00   -2.500e-01   -3.930e-01   -5.682e-01   -7.757e-01   -1.015e+00   -1.287e+00  
 1.3500e+00   -2.500e-01   -3.977e-01   -5.794e-01   -7.954e-01   -1.045e+00   -1.329e+00  
 1.4000e+00   -2.500e-01   -4.023e-01   -5.906e-01   -8.150e-01   -1.075e+00   -1.371e+00  
 1.4500e+00   -2.500e-01   -4.069e-01   -6.018e-01   -8.346e-01   -1.105e+00   -1.414e+00  
 1.5000e+00   -2.500e-01   -4.114e-01   -6.128e-01   -8.543e-01   -1.135e+00   -1.457e+00  
 1.5500e+00   -2.500e-01   -4.159e-01   -6.239e-01   -8.739e-01   -1.165e+00   -1.499e+00  
 1.6000e+00   -2.500e-01   -4.204e-01   -6.349e-01   -8.934e-01   -1.196e+00   -1.542e+00  
 1.6500e+00   -2.500e-01   -4.249e-01   -6.459e-01   -9.130e-01   -1.226e+00   -1.585e+00  
 1.7000e+00   -2.500e-01   -4.293e-01   -6.568e-01   -9.325e-01   -1.256e+00   -1.628e+00  
 1.7500e+00   -2.500e-01   -4.337e-01   -6.677e-01   -9.521e-01   -1.286e+00   -1.671e+00  
 1.8000e+00   -2.500e-01   -4.381e-01   -6.786e-01   -9.716e-01   -1.316e+00   -1.714e+00  
 1.8500e+00   -2.500e-01   -4.425e-01   -6.895e-01   -9.911e-01   -1.347e+00   -1.757e+00  
 1.9000e+00   -2.500e-01   -4.468e-01   -7.003e-01   -1.010e+00   -1.377e+00   -1.801e+00  
 1.9500e+00   -2.500e-01   -4.511e-01   -7.111e-01   -1.030e+00   -1.407e+00   -1.844e+00  
 2.0000e+00   -2.500e-01   -4.554e-01   -7.218e-01   -1.049e+00   -1.438e+00   -1.888e+00  


         ***** job concluded
 ******    h s p i c e      9001b           11:35:31  17-dec90   sun           
*** model test for subthreshold characterisitics ***                          
****** copyright 1990 meta-software,inc. *****site:duke_u                     
******  job statistics summary           tnom=  25.000 temp=  25.000          
******
          total cpu time          8.07 seconds
              job started at  11:35:31  17-dec90
              job ended   at  11:35:40  17-dec90


Mon Dec 17 11:35:41 EST 1990
I am done with mes.sp
