**************************************************************************
**                                                                      **
**                      ( MODEL M125CW-189)                             **
**                                                                      **
**      SPICE PARAMETERS                                                **
**      MCNC 1.25 CMOS PROCESS                                          **
**      ( WORST CASE )  April 1989                                      **
**                                                                      **
**      SHG-J                                                           **
**                                                                      **
**************************************************************************

.model nenh nmos
+    Level=2                    Ld=-8.3e-8              Tox=2.150000e-08
+    Nsub=1.792463e+16          Vto=0.688434            Kp=4.768999e-05
+    Gamma=0.399818             Phi=.85                 Uo=683.594
+    Uexp=0.01777131            Ucrit=200.              Delta=2.72869
+    Vmax=81459.2               Xj=9.000000e-07         Lambda=0.
+    Nfs=10.00                  Neff=2.18502            Nss=3.000000e+10
+    Tpg=1.00000                Rsh=70                  Cgso=3.54e-10
+    Cgdo=3.54e-10              Cj=3.63e-04             Mj=.916
+    Cjsw=1.83e-10              Mjsw=.195

.model penh pmos
+    Level=2                    Ld=-2.300000e-08        Tox=2.150000e-08 
+    Nsub=6.0000e+17            Vto=-.635779            Kp=1.915908e-05 
+    Gamma=.335224              Phi=.850                Uo=41.2542
+    Uexp=0.09763773            Ucrit=50408.2           Delta=4.72482
+    Vmax=42755.1               Xj=1.e-09               Lambda=0.  
+    Nfs=85.3597                Neff=0.0107262         Nss=3.000000e+10
+    Tpg=-1.00000               Rsh=164                 Cgso=4.01e-10
+    Cgdo=4.01e-10              Cj=4.42e-04             Mj=.3285
+    Cjsw=2.34e-10              Mjsw=.307

