**************************************************************************
**                                                                      **
**                      ( MODEL M125CB-189)                             **
**                                                                      **
**      SPICE PARAMETERS                                                **
**      MCNC 1.25 CMOS PROCESS                                          **
**      ( BEST CASE )   April 1989                                      **
**                                                                      **
**      SHG-J                                                           **
**                                                                      **
**************************************************************************

.model nenh nmos
+    Level=2                    Ld=8.30e-8              Tox=2.350000e-08
+    Nsub=3.567442e+16          Vto=0.575386            Kp=5.45402e-05
+    Gamma=0.390341             Phi=.850                Uo=364.573
+    Uexp=0.02004461            Ucrit=200.              Delta=2.05102
+    Vmax=44050.9               Xj=9.000000e-07         Lambda=0.
+    Nfs=1.00e+11               Neff=1.04691            Nss=3.000000e+10
+    Tpg=1.00000                Rsh=66                  Cgso=2.89e-10
+    Cgdo=2.89e-10              Cj=3.28e-04             Mj=.916
+    Cjsw=1.65e-10              Mjsw=.195

.model penh pmos
+    Level=2.00000              Ld=14.300000e-08        Tox=2.350000e-08
+    Nsub=5.0000e+17            Vto=-.51038             Kp=1.74061e-05
+    Gamma=.408119              Phi=.850                Uo=198.127
+    Uexp=0.01397198            Ucrit=1000.             Delta=6.35195
+    Vmax=32185.8               Xj=9.0e-07              Lambda=0.
+    Nfs=10.                    Neff=0.05552661         Nss=3.000000e+10
+    Tpg=-1.00000               Rsh=144                 Cgso=3.35e-10
+    Cgdo=3.35e-10              Cj=4.00e-04             Mj=.3285
+    Cjsw=2.12e-10              Mjsw=.307

