vdd 3 0 dc 5.0

vin 4 0 pwl( 0 0 1n 0 1.01n 5 10n 5 10.01n 0 20n 0 )
.tran 0.02n 20n
.print tran v(4) i(vin) v(2) i(vdd)
