vdd 2 0 dc 5.0

vin 3 0 pwl ( 0 0 1n 0 1.01n 5 20n 5 20.01n 0 40n 0 )

.tran 0.05n 40n
.print tran v(3) v(4) v(5)
