vdd 1 0 dc 5.5
vgate 2 0 dc 5.5

.dc vdd 0 5.5 0.1
.print dc i(vdd)
