vdd 1 0 dc 5.0
vin 2 0 pwl ( 0 0 1n 0 1.01n 5 2n 5 2.01n 0 4n 0 )
vd1 30 3 dc 0
vd2 40 4 dc 0
vd3 50 5 dc 0
vd4 60 6 dc 0
vd5 70 7 dc 0
vd6 80 8 dc 0
.tran 0.01n 4n
.print tran v(2) i(vd1) i(vd2) i(vd3) i(vd4) i(vd5) i(vd6)
