.options limpts=2000
vgate 2 0 5.0
vdd 1 0 0

.dc vdd 0 5.5 0.1 vgate 1.0 2.5 0.5
.print dc i(vdd)
