.options limpts=2000
vgate 0 2 0
vdd 0 1 0

.dc vdd 0 5.5 0.1 vgate 1.0 2.5 0.5
.print dc i(vdd)
