.options limpts=2000
vgate 2 0 5.5
vdd 1 0 0

.dc vdd 0 5.5 0.1 
.print dc i(vdd)
